*SPEF "ieee 1481-1999"
*DESIGN "alu4bit"
*DATE "07:00:47 Friday August 09, 2024"
*VENDOR "The OpenROAD Project"
*PROGRAM "OpenROAD"
*VERSION "b16bda7e82721d10566ff7e2b68f1ff0be9f9e38"
*DESIGN_FLOW "NAME_SCOPE LOCAL" "PIN_CAP NONE"
*DIVIDER /
*DELIMITER :
*BUS_DELIMITER []
*T_UNIT 1 NS
*C_UNIT 1 PF
*R_UNIT 1 OHM
*L_UNIT 1 HENRY

*NAME_MAP
*3 a[0]
*4 a[1]
*5 a[2]
*6 a[3]
*7 b[0]
*8 b[1]
*9 b[2]
*10 b[3]
*11 carry_out
*12 clk
*13 control[0]
*14 control[1]
*15 control[2]
*16 result[0]
*17 result[1]
*18 result[2]
*19 result[3]
*20 zero
*21 _000_
*22 _001_
*23 _002_
*24 _003_
*25 _004_
*26 _005_
*27 _006_
*28 _007_
*29 _008_
*30 _009_
*31 _010_
*32 _011_
*33 _012_
*34 _013_
*35 _014_
*36 _015_
*37 _016_
*38 _017_
*39 _018_
*40 _019_
*41 _020_
*42 _021_
*43 _022_
*44 _023_
*45 _024_
*46 _025_
*47 _026_
*48 _027_
*49 _028_
*50 _029_
*51 _030_
*52 _031_
*53 _032_
*54 _033_
*55 _034_
*56 _035_
*57 _036_
*58 _037_
*59 _038_
*60 _039_
*61 _040_
*62 _041_
*63 _042_
*64 _043_
*65 _044_
*66 _045_
*67 _046_
*68 _047_
*69 _048_
*70 _049_
*71 _050_
*72 _051_
*73 _052_
*74 _053_
*75 _054_
*76 _055_
*77 _056_
*78 _057_
*79 _058_
*80 _059_
*81 _060_
*82 _061_
*83 _062_
*84 _063_
*85 _064_
*86 _065_
*87 _066_
*88 _067_
*89 _068_
*90 _069_
*91 _070_
*92 _071_
*93 _072_
*94 _073_
*95 _074_
*96 _075_
*97 _076_
*98 _077_
*99 _078_
*100 _079_
*101 _080_
*102 _081_
*103 _082_
*104 _083_
*105 _084_
*106 _085_
*107 _086_
*108 _087_
*109 _088_
*110 _089_
*111 _090_
*112 _091_
*113 _092_
*114 _093_
*115 _094_
*116 _095_
*117 _096_
*118 _097_
*119 _098_
*120 _099_
*121 _100_
*122 _101_
*123 _102_
*124 _103_
*125 _104_
*126 _105_
*127 _106_
*128 _107_
*129 _108_
*130 _109_
*131 _110_
*132 _111_
*133 _112_
*134 _113_
*135 _114_
*136 _115_
*137 _116_
*138 clknet_0_clk
*139 clknet_1_0__leaf_clk
*140 clknet_1_1__leaf_clk
*141 net1
*142 net10
*143 net11
*144 net12
*145 net13
*146 net14
*147 net15
*148 net16
*149 net17
*150 net18
*151 net2
*152 net3
*153 net4
*154 net5
*155 net6
*156 net7
*157 net8
*158 net9
*159 FILLER_0_0_15
*160 FILLER_0_0_20
*161 FILLER_0_0_27
*162 FILLER_0_0_3
*163 FILLER_0_0_35
*164 FILLER_0_0_47
*165 FILLER_0_0_55
*166 FILLER_0_0_57
*167 FILLER_0_0_69
*168 FILLER_0_10_20
*169 FILLER_0_10_29
*170 FILLER_0_10_3
*171 FILLER_0_10_38
*172 FILLER_0_10_50
*173 FILLER_0_10_56
*174 FILLER_0_11_18
*175 FILLER_0_11_24
*176 FILLER_0_11_28
*177 FILLER_0_11_34
*178 FILLER_0_11_38
*179 FILLER_0_11_46
*180 FILLER_0_11_51
*181 FILLER_0_11_55
*182 FILLER_0_11_57
*183 FILLER_0_11_9
*184 FILLER_0_12_20
*185 FILLER_0_12_3
*186 FILLER_0_12_33
*187 FILLER_0_12_45
*188 FILLER_0_12_54
*189 FILLER_0_12_58
*190 FILLER_0_13_13
*191 FILLER_0_13_20
*192 FILLER_0_13_29
*193 FILLER_0_13_3
*194 FILLER_0_13_43
*195 FILLER_0_13_48
*196 FILLER_0_13_57
*197 FILLER_0_13_69
*198 FILLER_0_13_9
*199 FILLER_0_1_14
*200 FILLER_0_1_18
*201 FILLER_0_1_39
*202 FILLER_0_1_54
*203 FILLER_0_1_6
*204 FILLER_0_2_41
*205 FILLER_0_3_10
*206 FILLER_0_3_22
*207 FILLER_0_3_26
*208 FILLER_0_3_30
*209 FILLER_0_3_34
*210 FILLER_0_3_6
*211 FILLER_0_3_61
*212 FILLER_0_4_10
*213 FILLER_0_4_14
*214 FILLER_0_4_24
*215 FILLER_0_4_29
*216 FILLER_0_4_3
*217 FILLER_0_4_41
*218 FILLER_0_4_53
*219 FILLER_0_4_62
*220 FILLER_0_5_13
*221 FILLER_0_5_21
*222 FILLER_0_5_3
*223 FILLER_0_5_39
*224 FILLER_0_5_46
*225 FILLER_0_5_50
*226 FILLER_0_5_54
*227 FILLER_0_5_60
*228 FILLER_0_5_67
*229 FILLER_0_5_9
*230 FILLER_0_6_22
*231 FILLER_0_6_27
*232 FILLER_0_6_3
*233 FILLER_0_6_33
*234 FILLER_0_6_61
*235 FILLER_0_6_9
*236 FILLER_0_7_11
*237 FILLER_0_7_17
*238 FILLER_0_7_22
*239 FILLER_0_7_29
*240 FILLER_0_7_41
*241 FILLER_0_7_46
*242 FILLER_0_7_54
*243 FILLER_0_7_57
*244 FILLER_0_7_7
*245 FILLER_0_8_20
*246 FILLER_0_8_27
*247 FILLER_0_8_3
*248 FILLER_0_8_39
*249 FILLER_0_8_46
*250 FILLER_0_8_58
*251 FILLER_0_8_64
*252 FILLER_0_9_11
*253 FILLER_0_9_3
*254 FILLER_0_9_54
*255 FILLER_0_9_61
*256 FILLER_0_9_73
*257 PHY_EDGE_ROW_0_Left_14
*258 PHY_EDGE_ROW_0_Right_0
*259 PHY_EDGE_ROW_10_Left_24
*260 PHY_EDGE_ROW_10_Right_10
*261 PHY_EDGE_ROW_11_Left_25
*262 PHY_EDGE_ROW_11_Right_11
*263 PHY_EDGE_ROW_12_Left_26
*264 PHY_EDGE_ROW_12_Right_12
*265 PHY_EDGE_ROW_13_Left_27
*266 PHY_EDGE_ROW_13_Right_13
*267 PHY_EDGE_ROW_1_Left_15
*268 PHY_EDGE_ROW_1_Right_1
*269 PHY_EDGE_ROW_2_Left_16
*270 PHY_EDGE_ROW_2_Right_2
*271 PHY_EDGE_ROW_3_Left_17
*272 PHY_EDGE_ROW_3_Right_3
*273 PHY_EDGE_ROW_4_Left_18
*274 PHY_EDGE_ROW_4_Right_4
*275 PHY_EDGE_ROW_5_Left_19
*276 PHY_EDGE_ROW_5_Right_5
*277 PHY_EDGE_ROW_6_Left_20
*278 PHY_EDGE_ROW_6_Right_6
*279 PHY_EDGE_ROW_7_Left_21
*280 PHY_EDGE_ROW_7_Right_7
*281 PHY_EDGE_ROW_8_Left_22
*282 PHY_EDGE_ROW_8_Right_8
*283 PHY_EDGE_ROW_9_Left_23
*284 PHY_EDGE_ROW_9_Right_9
*285 TAP_TAPCELL_ROW_0_28
*286 TAP_TAPCELL_ROW_0_29
*287 TAP_TAPCELL_ROW_10_39
*288 TAP_TAPCELL_ROW_11_40
*289 TAP_TAPCELL_ROW_12_41
*290 TAP_TAPCELL_ROW_13_42
*291 TAP_TAPCELL_ROW_13_43
*292 TAP_TAPCELL_ROW_1_30
*293 TAP_TAPCELL_ROW_2_31
*294 TAP_TAPCELL_ROW_3_32
*295 TAP_TAPCELL_ROW_4_33
*296 TAP_TAPCELL_ROW_5_34
*297 TAP_TAPCELL_ROW_6_35
*298 TAP_TAPCELL_ROW_7_36
*299 TAP_TAPCELL_ROW_8_37
*300 TAP_TAPCELL_ROW_9_38
*301 _117_
*302 _118_
*303 _119_
*304 _120_
*305 _121_
*306 _122_
*307 _123_
*308 _124_
*309 _125_
*310 _126_
*311 _127_
*312 _128_
*313 _129_
*314 _130_
*315 _131_
*316 _132_
*317 _133_
*318 _134_
*319 _135_
*320 _136_
*321 _137_
*322 _138_
*323 _139_
*324 _140_
*325 _141_
*326 _142_
*327 _143_
*328 _144_
*329 _145_
*330 _146_
*331 _147_
*332 _148_
*333 _149_
*334 _150_
*335 _151_
*336 _152_
*337 _153_
*338 _154_
*339 _155_
*340 _156_
*341 _157_
*342 _158_
*343 _159_
*344 _160_
*345 _161_
*346 _162_
*347 _163_
*348 _164_
*349 _165_
*350 _166_
*351 _167_
*352 _168_
*353 _169_
*354 _170_
*355 _171_
*356 _172_
*357 _173_
*358 _174_
*359 _175_
*360 _176_
*361 _177_
*362 _178_
*363 _179_
*364 _180_
*365 _181_
*366 _182_
*367 _183_
*368 _184_
*369 _185_
*370 _186_
*371 _187_
*372 _188_
*373 _189_
*374 _190_
*375 _191_
*376 _192_
*377 _193_
*378 _194_
*379 _195_
*380 _196_
*381 _197_
*382 _198_
*383 _199_
*384 _200_
*385 _201_
*386 _202_
*387 _203_
*388 _204_
*389 _205_
*390 _206_
*391 _207_
*392 _208_
*393 _209_
*394 _210_
*395 _211_
*396 _212_
*397 _213_
*398 _214_
*399 _215_
*400 _216_
*401 _217_
*402 _218_
*403 _219_
*404 _220_
*405 _221_
*406 _222_
*407 _223_
*408 _224_
*409 _225_
*410 _226_
*411 _227_
*412 _228_
*413 _229_
*414 _230_
*415 _231_
*416 _232_
*417 _233_
*418 _234_
*419 _235_
*420 _236_
*421 _237_
*422 _238_
*423 _239_
*424 clkbuf_0_clk
*425 clkbuf_1_0__f_clk
*426 clkbuf_1_1__f_clk
*427 hold1
*428 input1
*429 input10
*430 input11
*431 input2
*432 input3
*433 input4
*434 input5
*435 input6
*436 input7
*437 input8
*438 input9
*439 output12
*440 output13
*441 output14
*442 output15
*443 output16
*444 output17

*PORTS
a[0] I
a[1] I
a[2] I
a[3] I
b[0] I
b[1] I
b[2] I
b[3] I
carry_out O
clk I
control[0] I
control[1] I
control[2] I
result[0] O
result[1] O
result[2] O
result[3] O
zero O

*D_NET *3 0.000619365
*CONN
*P a[0] I
*I *428:A I *D sky130_fd_sc_hd__buf_1
*CAP
1 a[0] 0.000309683
2 *428:A 0.000309683
3 *428:A *434:A 0
*RES
1 a[0] *428:A 8.82 
*END

*D_NET *4 0.000667752
*CONN
*P a[1] I
*I *431:A I *D sky130_fd_sc_hd__buf_1
*CAP
1 a[1] 0.000333876
2 *431:A 0.000333876
3 *431:A *435:A 0
*RES
1 a[1] *431:A 9.51 
*END

*D_NET *5 0.00066835
*CONN
*P a[2] I
*I *432:A I *D sky130_fd_sc_hd__clkbuf_1
*CAP
1 a[2] 0.000307242
2 *432:A 0.000307242
3 *432:A *436:A 5.38666e-05
*RES
1 a[2] *432:A 7.70197 
*END

*D_NET *6 0.000570474
*CONN
*P a[3] I
*I *433:A I *D sky130_fd_sc_hd__buf_1
*CAP
1 a[3] 0.00026081
2 *433:A 0.00026081
3 *433:A *410:A 4.8854e-05
4 *433:A *437:A 0
*RES
1 a[3] *433:A 8.145 
*END

*D_NET *7 0.000760839
*CONN
*P b[0] I
*I *434:A I *D sky130_fd_sc_hd__buf_1
*CAP
1 b[0] 0.000355978
2 *434:A 0.000355978
3 *434:A *302:B 9.13949e-06
4 *434:A *154:6 1.9872e-05
5 *434:A *154:12 1.9872e-05
6 *428:A *434:A 0
*RES
1 b[0] *434:A 9.825 
*END

*D_NET *8 0.000704936
*CONN
*P b[1] I
*I *435:A I *D sky130_fd_sc_hd__buf_1
*CAP
1 b[1] 0.000328003
2 *435:A 0.000328003
3 *435:A *56:72 4.89295e-05
4 *431:A *435:A 0
*RES
1 b[1] *435:A 9.375 
*END

*D_NET *9 0.000697372
*CONN
*P b[2] I
*I *436:A I *D sky130_fd_sc_hd__buf_1
*CAP
1 b[2] 0.000321752
2 *436:A 0.000321752
3 *436:A *158:18 0
4 *432:A *436:A 5.38666e-05
*RES
1 b[2] *436:A 7.95697 
*END

*D_NET *10 0.000518524
*CONN
*P b[3] I
*I *437:A I *D sky130_fd_sc_hd__buf_1
*CAP
1 b[3] 0.0002455
2 *437:A 0.0002455
3 *437:A *388:B 2.75229e-05
4 *437:A *429:A 0
5 *433:A *437:A 0
*RES
1 b[3] *437:A 7.8 
*END

*D_NET *11 0.00120125
*CONN
*P carry_out O
*I *439:X O *D sky130_fd_sc_hd__buf_2
*CAP
1 carry_out 0.000536024
2 *439:X 0.000536024
3 carry_out result[3] 9.36528e-05
4 carry_out zero 0
5 carry_out *439:A 3.55448e-05
*RES
1 *439:X carry_out 6.39463 
*END

*D_NET *12 0.000874996
*CONN
*P clk I
*I *424:A I *D sky130_fd_sc_hd__clkbuf_16
*CAP
1 clk 0.00031726
2 *424:A 0.00031726
3 *424:A result[2] 8.0342e-05
4 *424:A zero 9.07287e-05
5 *424:A *442:A 6.94043e-05
*RES
1 clk *424:A 6.35483 
*END

*D_NET *13 0.000750734
*CONN
*P control[0] I
*I *438:A I *D sky130_fd_sc_hd__buf_2
*CAP
1 control[0] 0.000373542
2 *438:A 0.000373542
3 *438:A *158:10 3.64998e-06
*RES
1 control[0] *438:A 9.6139 
*END

*D_NET *14 0.000617339
*CONN
*P control[1] I
*I *429:A I *D sky130_fd_sc_hd__buf_1
*CAP
1 control[1] 0.00030867
2 *429:A 0.00030867
3 *437:A *429:A 0
*RES
1 control[1] *429:A 8.7 
*END

*D_NET *15 0.000829274
*CONN
*P control[2] I
*I *430:A I *D sky130_fd_sc_hd__clkbuf_4
*CAP
1 control[2] 0.000394358
2 *430:A 0.000394358
3 *430:A *55:14 0
4 *430:A *143:12 4.05569e-05
*RES
1 control[2] *430:A 6.9231 
*END

*D_NET *16 0.00101295
*CONN
*P result[0] O
*I *440:X O *D sky130_fd_sc_hd__buf_2
*CAP
1 result[0] 0.000478309
2 *440:X 0.000478309
3 result[0] result[1] 5.63302e-05
4 result[0] result[2] 0
*RES
1 *440:X result[0] 6.72637 
*END

*D_NET *17 0.00107294
*CONN
*P result[1] O
*I *441:X O *D sky130_fd_sc_hd__buf_2
*CAP
1 result[1] 0.000483879
2 *441:X 0.000483879
3 result[1] *441:A 4.8854e-05
4 result[0] result[1] 5.63302e-05
*RES
1 *441:X result[1] 10.687 
*END

*D_NET *18 0.00143249
*CONN
*P result[2] O
*I *442:X O *D sky130_fd_sc_hd__buf_2
*CAP
1 result[2] 0.000650722
2 *442:X 0.000650722
3 result[2] zero 0
4 result[2] *442:A 5.06989e-05
5 result[0] result[2] 0
6 *424:A result[2] 8.0342e-05
*RES
1 *442:X result[2] 12.6318 
*END

*D_NET *19 0.00100315
*CONN
*P result[3] O
*I *443:X O *D sky130_fd_sc_hd__buf_2
*CAP
1 result[3] 0.000396551
2 *443:X 0.000396551
3 result[3] zero 0.000116397
4 carry_out result[3] 9.36528e-05
*RES
1 *443:X result[3] 6.21637 
*END

*D_NET *20 0.0011802
*CONN
*P zero O
*I *444:X O *D sky130_fd_sc_hd__buf_2
*CAP
1 zero 0.00048149
2 *444:X 0.00048149
3 zero *444:A 1.00941e-05
4 carry_out zero 0
5 result[2] zero 0
6 result[3] zero 0.000116397
7 *424:A zero 9.07287e-05
*RES
1 *444:X zero 5.93943 
*END

*D_NET *21 0.000394557
*CONN
*I *423:D I *D sky130_fd_sc_hd__dfxtp_1
*I *409:Y O *D sky130_fd_sc_hd__nor2_1
*CAP
1 *423:D 0.00014767
2 *409:Y 0.00014767
3 *423:D *409:B 6.72833e-06
4 *423:D *423:CLK 9.24881e-05
*RES
1 *409:Y *423:D 9.45375 
*END

*D_NET *22 0.000884875
*CONN
*I *418:D I *D sky130_fd_sc_hd__dfxtp_1
*I *417:Y O *D sky130_fd_sc_hd__a31oi_1
*CAP
1 *418:D 0.000256622
2 *417:Y 0.000256622
3 *418:D *411:C 2.01737e-05
4 *418:D *417:A1 0.000131146
5 *418:D *417:B1 0.000120657
6 *418:D *418:CLK 1.0397e-05
7 *418:D *78:24 8.9257e-05
*RES
1 *417:Y *418:D 11.5238 
*END

*D_NET *23 0.00303817
*CONN
*I *392:B I *D sky130_fd_sc_hd__nand3_1
*I *384:B I *D sky130_fd_sc_hd__nand2_1
*I *383:X O *D sky130_fd_sc_hd__or2b_1
*CAP
1 *392:B 0.000233254
2 *384:B 3.21876e-05
3 *383:X 0.000895818
4 *23:22 0.00116126
5 *384:B *384:A 4.87465e-06
6 *384:B *390:A 7.79767e-06
7 *392:B *384:A 8.28018e-06
8 *392:B *390:A 8.64599e-05
9 *392:B *392:A 2.49909e-05
10 *392:B *393:C 3.09774e-05
11 *392:B *411:C 3.03438e-06
12 *392:B *30:8 4.51928e-05
13 *23:22 *388:B 2.68464e-05
14 *23:22 *400:B 0.000154842
15 *23:22 *411:C 1.74111e-05
16 *23:22 *28:30 7.96104e-06
17 *23:22 *29:42 0.000275554
18 *23:22 *142:10 7.96104e-06
19 *23:22 *153:14 1.34618e-05
*RES
1 *383:X *23:22 12.672 
2 *23:22 *384:B 2.215 
3 *23:22 *392:B 4.825 
*END

*D_NET *24 0.000206204
*CONN
*I *390:A I *D sky130_fd_sc_hd__nand2_1
*I *384:Y O *D sky130_fd_sc_hd__nand2_1
*CAP
1 *390:A 3.10862e-05
2 *384:Y 3.10862e-05
3 *390:A *384:A 3.78708e-05
4 *390:A *411:C 1.19028e-05
5 *384:B *390:A 7.79767e-06
6 *392:B *390:A 8.64599e-05
*RES
1 *384:Y *390:A 4.355 
*END

*D_NET *25 0.000163546
*CONN
*I *387:A I *D sky130_fd_sc_hd__nand2_1
*I *385:Y O *D sky130_fd_sc_hd__inv_2
*CAP
1 *387:A 1.30713e-05
2 *385:Y 1.30713e-05
3 *387:A *388:A 5.09431e-05
4 *387:A *27:6 8.64599e-05
*RES
1 *385:Y *387:A 3.995 
*END

*D_NET *26 0.00267703
*CONN
*I *410:A I *D sky130_fd_sc_hd__nand2_1
*I *387:B I *D sky130_fd_sc_hd__nand2_1
*I *399:A2 I *D sky130_fd_sc_hd__o2111a_1
*I *386:Y O *D sky130_fd_sc_hd__inv_2
*CAP
1 *410:A 0.000305139
2 *387:B 0.0001344
3 *399:A2 0.00010539
4 *386:Y 0
5 *26:10 0.000527838
6 *26:4 0.000593188
7 *387:B *388:A 1.78606e-05
8 *387:B *395:A2 3.36681e-06
9 *387:B *27:6 4.77807e-05
10 *399:A2 *304:A 9.42867e-05
11 *399:A2 *395:A2 6.78414e-05
12 *399:A2 *399:C1 4.53691e-05
13 *399:A2 *29:12 0
14 *399:A2 *66:10 0.000121032
15 *399:A2 *142:10 6.08562e-05
16 *410:A *410:B 2.50235e-05
17 *410:A *153:10 0.000132552
18 *26:10 *386:A 4.69833e-05
19 *26:10 *388:B 0.00012398
20 *26:10 *29:12 0
21 *26:10 *142:10 0.000175285
22 *433:A *410:A 4.8854e-05
*RES
1 *386:Y *26:4 1.6 
2 *26:4 *26:10 6.665 
3 *26:10 *399:A2 6.63 
4 *26:10 *387:B 5.46 
5 *26:4 *410:A 10.715 
*END

*D_NET *27 0.000848864
*CONN
*I *389:A I *D sky130_fd_sc_hd__nand2_2
*I *395:A3 I *D sky130_fd_sc_hd__a31oi_1
*I *387:Y O *D sky130_fd_sc_hd__nand2_1
*CAP
1 *389:A 4.72963e-05
2 *395:A3 7.57029e-05
3 *387:Y 0.000114071
4 *27:6 0.00023707
5 *389:A *153:14 1.52352e-05
6 *395:A3 *395:A1 3.53403e-05
7 *395:A3 *29:12 0.000130493
8 *27:6 *388:A 2.64128e-05
9 *27:6 *153:14 3.30017e-05
10 *387:A *27:6 8.64599e-05
11 *387:B *27:6 4.77807e-05
*RES
1 *387:Y *27:6 3.775 
2 *27:6 *395:A3 7.235 
3 *27:6 *389:A 2.41 
*END

*D_NET *28 0.00412466
*CONN
*I *413:B I *D sky130_fd_sc_hd__nand2_1
*I *397:A2 I *D sky130_fd_sc_hd__a21oi_1
*I *394:A I *D sky130_fd_sc_hd__nand2_1
*I *389:B I *D sky130_fd_sc_hd__nand2_2
*I *388:Y O *D sky130_fd_sc_hd__nand2_1
*CAP
1 *413:B 0.000578885
2 *397:A2 7.75645e-05
3 *394:A 0
4 *389:B 1.45076e-05
5 *388:Y 0.000394839
6 *28:30 0.000957872
7 *28:12 1.45076e-05
8 *28:10 0.000696262
9 *389:B *395:A1 2.68464e-05
10 *389:B *153:14 2.68464e-05
11 *397:A2 *395:B1 9.25419e-05
12 *397:A2 *400:A 1.7635e-05
13 *413:B *391:A 8.10177e-06
14 *413:B *400:B 3.65506e-05
15 *413:B *413:A 9.25408e-05
16 *413:B *414:A 3.30266e-05
17 *413:B *417:A2 9.76407e-06
18 *413:B *29:42 5.54236e-05
19 *413:B *31:29 5.55113e-05
20 *413:B *65:62 3.92443e-05
21 *28:10 *388:A 0.000232978
22 *28:10 *388:B 3.64998e-06
23 *28:10 *394:B 2.08064e-05
24 *28:10 *410:B 5.50183e-07
25 *28:10 *153:10 7.99093e-06
26 *28:10 *153:14 0.000223042
27 *28:30 *394:B 3.59531e-06
28 *28:30 *395:A1 0.000131802
29 *28:30 *397:B1 1.87674e-05
30 *28:30 *400:B 0.00024505
31 *23:22 *28:30 7.96104e-06
*RES
1 *388:Y *28:10 9.06 
2 *28:10 *28:12 2 
3 *28:12 *389:B 2.05 
4 *28:12 *394:A 1.6 
5 *28:10 *28:30 3.1601 
6 *28:30 *397:A2 5.4875 
7 *28:30 *413:B 7.6797 
*END

*D_NET *29 0.00441935
*CONN
*I *391:A I *D sky130_fd_sc_hd__inv_2
*I *402:B I *D sky130_fd_sc_hd__nand2_1
*I *390:B I *D sky130_fd_sc_hd__nand2_1
*I *396:B I *D sky130_fd_sc_hd__nor2_1
*I *399:D1 I *D sky130_fd_sc_hd__o2111a_1
*I *389:Y O *D sky130_fd_sc_hd__nand2_2
*CAP
1 *391:A 0.00010453
2 *402:B 0.00019079
3 *390:B 1.35878e-05
4 *396:B 0.000132608
5 *399:D1 4.33825e-05
6 *389:Y 0
7 *29:44 0.000204378
8 *29:42 0.00057636
9 *29:12 0.000342055
10 *29:6 0.000637895
11 *390:B *384:A 4.55864e-06
12 *390:B *129:16 3.63701e-06
13 *391:A *394:B 0.000167228
14 *391:A *31:29 0.000165651
15 *396:B *395:A2 0.000133329
16 *396:B *396:A 4.77807e-05
17 *396:B *398:A 3.19823e-05
18 *396:B *66:10 0.000136809
19 *396:B *66:21 2.07338e-05
20 *396:B *72:25 7.41855e-05
21 *396:B *111:53 0.000158545
22 *399:D1 *395:A2 5.83121e-06
23 *399:D1 *66:10 2.49909e-05
24 *402:B *392:C 3.93429e-05
25 *402:B *402:A 2.05142e-05
26 *402:B *412:B 5.64102e-05
27 *402:B *413:A 3.41033e-05
28 *402:B *129:16 3.63701e-06
29 *29:12 *385:A 9.12494e-06
30 *29:12 *395:A1 0
31 *29:12 *395:A2 6.66567e-05
32 *29:12 *398:A 5.83121e-06
33 *29:12 *400:B 1.88656e-05
34 *29:12 *66:10 2.69217e-05
35 *29:42 *394:B 0.000430968
36 *29:42 *400:B 1.65541e-05
37 *395:A3 *29:12 0.000130493
38 *399:A2 *29:12 0
39 *413:B *391:A 8.10177e-06
40 *413:B *29:42 5.54236e-05
41 *23:22 *29:42 0.000275554
42 *26:10 *29:12 0
*RES
1 *389:Y *29:6 3.6 
2 *29:6 *29:12 5.285 
3 *29:12 *399:D1 2.41 
4 *29:12 *396:B 9.845 
5 *29:6 *29:42 1.5868 
6 *29:42 *29:44 0.5 
7 *29:44 *390:B 3.8325 
8 *29:44 *402:B 6.7125 
9 *29:42 *391:A 4.66183 
*END

*D_NET *30 0.00113524
*CONN
*I *411:A I *D sky130_fd_sc_hd__nand3_1
*I *393:A I *D sky130_fd_sc_hd__nand3_1
*I *390:Y O *D sky130_fd_sc_hd__nand2_1
*CAP
1 *411:A 7.57851e-06
2 *393:A 0
3 *390:Y 0.000155562
4 *30:8 0.00016314
5 *411:A *393:B 4.89295e-05
6 *411:A *411:C 2.20014e-05
7 *30:8 *384:A 8.64599e-05
8 *30:8 *392:A 8.41384e-05
9 *30:8 *393:B 2.71311e-05
10 *30:8 *393:C 0.000148337
11 *30:8 *411:C 0.000346772
12 *392:B *30:8 4.51928e-05
*RES
1 *390:Y *30:8 7.24 
2 *30:8 *393:A 1.6 
3 *30:8 *411:A 2.05 
*END

*D_NET *31 0.0027028
*CONN
*I *412:B I *D sky130_fd_sc_hd__nand2_1
*I *392:C I *D sky130_fd_sc_hd__nand3_1
*I *403:C I *D sky130_fd_sc_hd__nand3_1
*I *391:Y O *D sky130_fd_sc_hd__inv_2
*CAP
1 *412:B 0.000151312
2 *392:C 1.93884e-05
3 *403:C 0.000342812
4 *391:Y 8.06492e-05
5 *31:29 0.000426248
6 *31:8 0.000679009
7 *392:C *129:16 1.83114e-05
8 *403:C *394:B 0
9 *403:C *403:A 3.5678e-06
10 *403:C *405:A 1.52418e-05
11 *403:C *406:A2 2.71912e-06
12 *403:C *406:B1 4.77719e-05
13 *403:C *413:A 2.61042e-05
14 *403:C *416:B 0.000110869
15 *403:C *53:10 0.000231916
16 *412:B *402:A 4.89395e-05
17 *412:B *41:12 3.75882e-06
18 *412:B *129:16 5.33115e-05
19 *31:8 *393:C 0.000123955
20 *391:A *31:29 0.000165651
21 *402:B *392:C 3.93429e-05
22 *402:B *412:B 5.64102e-05
23 *413:B *31:29 5.55113e-05
*RES
1 *391:Y *31:8 4.74 
2 *31:8 *403:C 9.285 
3 *31:8 *31:29 1.50413 
4 *31:29 *392:C 4.0875 
5 *31:29 *412:B 6.0975 
*END

*D_NET *32 0.00055923
*CONN
*I *393:C I *D sky130_fd_sc_hd__nand3_1
*I *392:Y O *D sky130_fd_sc_hd__nand3_1
*CAP
1 *393:C 0.000122542
2 *392:Y 0.000122542
3 *393:C *392:A 1.08758e-05
4 *392:B *393:C 3.09774e-05
5 *30:8 *393:C 0.000148337
6 *31:8 *393:C 0.000123955
*RES
1 *392:Y *393:C 6.08 
*END

*D_NET *33 0.00125596
*CONN
*I *406:A1 I *D sky130_fd_sc_hd__a21oi_1
*I *393:Y O *D sky130_fd_sc_hd__nand3_1
*CAP
1 *406:A1 0.000350554
2 *393:Y 0.000350554
3 *406:A1 *406:B1 4.77757e-05
4 *406:A1 *411:C 4.77757e-05
5 *406:A1 *416:B 0.000215075
6 *406:A1 *53:10 0.000244225
*RES
1 *393:Y *406:A1 13.56 
*END

*D_NET *34 0.000482476
*CONN
*I *395:A1 I *D sky130_fd_sc_hd__a31oi_1
*I *394:Y O *D sky130_fd_sc_hd__nand2_1
*CAP
1 *395:A1 0.000130821
2 *394:Y 0.000130821
3 *395:A1 *398:A 2.68464e-05
4 *389:B *395:A1 2.68464e-05
5 *395:A3 *395:A1 3.53403e-05
6 *28:30 *395:A1 0.000131802
7 *29:12 *395:A1 0
*RES
1 *394:Y *395:A1 9.735 
*END

*D_NET *35 0.000840953
*CONN
*I *398:A I *D sky130_fd_sc_hd__nand2_1
*I *395:Y O *D sky130_fd_sc_hd__a31oi_1
*CAP
1 *398:A 0.00028557
2 *395:Y 0.00028557
3 *398:A *395:A2 1.94027e-05
4 *398:A *395:B1 5.83121e-06
5 *398:A *397:B1 8.64421e-05
6 *398:A *66:10 6.30072e-05
7 *398:A *111:53 3.04704e-05
8 *395:A1 *398:A 2.68464e-05
9 *396:B *398:A 3.19823e-05
10 *29:12 *398:A 5.83121e-06
*RES
1 *395:Y *398:A 11.91 
*END

*D_NET *36 0.000934539
*CONN
*I *397:B1 I *D sky130_fd_sc_hd__a21oi_1
*I *396:Y O *D sky130_fd_sc_hd__nor2_1
*CAP
1 *397:B1 0.000181878
2 *396:Y 0.000181878
3 *397:B1 *395:B1 4.77769e-05
4 *397:B1 *397:A1 0.00015118
5 *397:B1 *398:B 0.0001174
6 *397:B1 *400:A 0.000120669
7 *397:B1 *111:53 2.85482e-05
8 *398:A *397:B1 8.64421e-05
9 *28:30 *397:B1 1.87674e-05
*RES
1 *396:Y *397:B1 11.715 
*END

*D_NET *37 0.000376465
*CONN
*I *398:B I *D sky130_fd_sc_hd__nand2_1
*I *397:Y O *D sky130_fd_sc_hd__a21oi_1
*CAP
1 *398:B 0.000104495
2 *397:Y 0.000104495
3 *398:B *397:A1 2.3228e-05
4 *398:B *111:53 2.68464e-05
5 *397:B1 *398:B 0.0001174
*RES
1 *397:Y *398:B 9.285 
*END

*D_NET *38 0.00079733
*CONN
*I *400:A I *D sky130_fd_sc_hd__nor2_1
*I *398:Y O *D sky130_fd_sc_hd__nand2_1
*CAP
1 *400:A 0.000274739
2 *398:Y 0.000274739
3 *400:A *395:B1 2.91795e-05
4 *400:A *397:A1 6.5181e-05
5 *400:A *400:B 4.55864e-06
6 *400:A *111:53 1.06304e-05
7 *397:A2 *400:A 1.7635e-05
8 *397:B1 *400:A 0.000120669
*RES
1 *398:Y *400:A 11.01 
*END

*D_NET *39 0.00127113
*CONN
*I *400:B I *D sky130_fd_sc_hd__nor2_1
*I *399:X O *D sky130_fd_sc_hd__o2111a_1
*CAP
1 *400:B 0.00039269
2 *399:X 0.00039269
3 *400:B *395:A2 9.33006e-06
4 *400:A *400:B 4.55864e-06
5 *413:B *400:B 3.65506e-05
6 *23:22 *400:B 0.000154842
7 *28:30 *400:B 0.00024505
8 *29:12 *400:B 1.88656e-05
9 *29:42 *400:B 1.65541e-05
*RES
1 *399:X *400:B 9.46047 
*END

*D_NET *40 0.00164441
*CONN
*I *406:A2 I *D sky130_fd_sc_hd__a21oi_1
*I *400:Y O *D sky130_fd_sc_hd__nor2_1
*CAP
1 *406:A2 0.000594191
2 *400:Y 0.000594191
3 *406:A2 *395:B1 4.77719e-05
4 *406:A2 *402:A 2.01934e-05
5 *406:A2 *403:B 4.12775e-05
6 *406:A2 *404:A 3.54721e-05
7 *406:A2 *405:A 0.000193553
8 *406:A2 *406:B1 3.06275e-05
9 *406:A2 *413:A 4.89395e-05
10 *406:A2 *41:12 3.54721e-05
11 *403:C *406:A2 2.71912e-06
*RES
1 *400:Y *406:A2 15.015 
*END

*D_NET *41 0.000665074
*CONN
*I *402:A I *D sky130_fd_sc_hd__nand2_1
*I *412:A I *D sky130_fd_sc_hd__nand2_1
*I *401:Y O *D sky130_fd_sc_hd__nand2_1
*CAP
1 *402:A 6.04631e-05
2 *412:A 0
3 *401:Y 0.000136723
4 *41:12 0.000197186
5 *402:A *413:A 8.64599e-05
6 *402:A *414:A 0
7 *41:12 *395:B1 2.84492e-05
8 *41:12 *403:B 2.69153e-05
9 *41:12 *129:16 0
10 *402:B *402:A 2.05142e-05
11 *406:A2 *402:A 2.01934e-05
12 *406:A2 *41:12 3.54721e-05
13 *412:B *402:A 4.89395e-05
14 *412:B *41:12 3.75882e-06
*RES
1 *401:Y *41:12 7.685 
2 *41:12 *412:A 1.6 
3 *41:12 *402:A 3.46 
*END

*D_NET *42 0.000298813
*CONN
*I *404:A I *D sky130_fd_sc_hd__nand3_1
*I *402:Y O *D sky130_fd_sc_hd__nand2_1
*CAP
1 *404:A 6.09487e-05
2 *402:Y 6.09487e-05
3 *404:A *404:B 9.12494e-06
4 *404:A *129:16 0.000132319
5 *406:A2 *404:A 3.54721e-05
*RES
1 *402:Y *404:A 8.835 
*END

*D_NET *43 0.00042271
*CONN
*I *404:C I *D sky130_fd_sc_hd__nand3_1
*I *403:Y O *D sky130_fd_sc_hd__nand3_1
*CAP
1 *404:C 0.000130197
2 *403:Y 0.000130197
3 *404:C *401:A 2.10841e-05
4 *404:C *403:A 0.000129
5 *404:C *111:53 1.22325e-05
*RES
1 *403:Y *404:C 5.045 
*END

*D_NET *44 0.000483086
*CONN
*I *405:A I *D sky130_fd_sc_hd__inv_2
*I *404:Y O *D sky130_fd_sc_hd__nand3_1
*CAP
1 *405:A 8.99701e-05
2 *404:Y 8.99701e-05
3 *405:A *403:B 9.43509e-05
4 *403:C *405:A 1.52418e-05
5 *406:A2 *405:A 0.000193553
*RES
1 *404:Y *405:A 5.645 
*END

*D_NET *45 0.000386858
*CONN
*I *406:B1 I *D sky130_fd_sc_hd__a21oi_1
*I *405:Y O *D sky130_fd_sc_hd__inv_2
*CAP
1 *406:B1 0.000128023
2 *405:Y 0.000128023
3 *406:B1 *137:10 4.6368e-06
4 *403:C *406:B1 4.77719e-05
5 *406:A1 *406:B1 4.77757e-05
6 *406:A2 *406:B1 3.06275e-05
*RES
1 *405:Y *406:B1 5.375 
*END

*D_NET *46 0.00133357
*CONN
*I *408:A I *D sky130_fd_sc_hd__nand2_1
*I *407:Y O *D sky130_fd_sc_hd__nor2_1
*CAP
1 *408:A 0.000258252
2 *407:Y 0.000258252
3 *408:A *409:A 6.04555e-05
4 *408:A *419:D 1.08758e-05
5 *408:A *421:CLK 0.000287945
6 *408:A *421:D 0.000136685
7 *408:A *425:A 2.98644e-05
8 *408:A *426:A 0.00020306
9 *408:A *134:14 8.81851e-05
*RES
1 *407:Y *408:A 14.595 
*END

*D_NET *47 0.00106278
*CONN
*I *409:A I *D sky130_fd_sc_hd__nor2_1
*I *408:Y O *D sky130_fd_sc_hd__nand2_1
*CAP
1 *409:A 0.000241681
2 *408:Y 0.000241681
3 *409:A *408:B 3.64998e-06
4 *409:A *421:D 6.90254e-05
5 *409:A *423:CLK 0.000160266
6 *409:A *425:A 0.000286016
7 *408:A *409:A 6.04555e-05
*RES
1 *408:Y *409:A 12.45 
*END

*D_NET *48 0.00206109
*CONN
*I *411:C I *D sky130_fd_sc_hd__nand3_1
*I *410:Y O *D sky130_fd_sc_hd__nand2_1
*CAP
1 *411:C 0.000708535
2 *410:Y 0.000708535
3 *411:C *384:A 0.000146088
4 *411:C *393:B 2.05782e-05
5 *411:C *417:A1 8.28018e-06
6 *390:A *411:C 1.19028e-05
7 *392:B *411:C 3.03438e-06
8 *406:A1 *411:C 4.77757e-05
9 *411:A *411:C 2.20014e-05
10 *418:D *411:C 2.01737e-05
11 *23:22 *411:C 1.74111e-05
12 *30:8 *411:C 0.000346772
*RES
1 *410:Y *411:C 13.7 
*END

*D_NET *49 0.000893143
*CONN
*I *417:A1 I *D sky130_fd_sc_hd__a31oi_1
*I *411:Y O *D sky130_fd_sc_hd__nand3_1
*CAP
1 *417:A1 0.000233795
2 *411:Y 0.000233795
3 *417:A1 *393:B 1.08758e-05
4 *417:A1 *417:B1 9.01253e-05
5 *417:A1 *418:CLK 7.03276e-05
6 *417:A1 *78:24 5.17967e-05
7 *417:A1 *139:19 6.30012e-05
8 *411:C *417:A1 8.28018e-06
9 *418:D *417:A1 0.000131146
*RES
1 *411:Y *417:A1 11.805 
*END

*D_NET *50 0.000703419
*CONN
*I *413:A I *D sky130_fd_sc_hd__nand2_1
*I *412:Y O *D sky130_fd_sc_hd__nand2_1
*CAP
1 *413:A 0.000168356
2 *412:Y 0.000168356
3 *413:A *394:B 3.60024e-06
4 *413:A *414:A 4.77719e-05
5 *413:A *417:A2 1.52352e-05
6 *413:A *65:62 1.19525e-05
7 *402:A *413:A 8.64599e-05
8 *402:B *413:A 3.41033e-05
9 *403:C *413:A 2.61042e-05
10 *406:A2 *413:A 4.89395e-05
11 *413:B *413:A 9.25408e-05
*RES
1 *412:Y *413:A 10.68 
*END

*D_NET *51 0.000201512
*CONN
*I *414:A I *D sky130_fd_sc_hd__nand2_1
*I *413:Y O *D sky130_fd_sc_hd__nand2_1
*CAP
1 *414:A 3.50074e-05
2 *413:Y 3.50074e-05
3 *414:A *417:A2 5.06989e-05
4 *402:A *414:A 0
5 *413:A *414:A 4.77719e-05
6 *413:B *414:A 3.30266e-05
*RES
1 *413:Y *414:A 4.355 
*END

*D_NET *52 0.000370299
*CONN
*I *417:A2 I *D sky130_fd_sc_hd__a31oi_1
*I *414:Y O *D sky130_fd_sc_hd__nand2_1
*CAP
1 *417:A2 0.000147301
2 *414:Y 0.000147301
3 *413:A *417:A2 1.52352e-05
4 *413:B *417:A2 9.76407e-06
5 *414:A *417:A2 5.06989e-05
*RES
1 *414:Y *417:A2 5.375 
*END

*D_NET *53 0.00248908
*CONN
*I *417:A3 I *D sky130_fd_sc_hd__a31oi_1
*I *416:B I *D sky130_fd_sc_hd__nor2_1
*I *415:Y O *D sky130_fd_sc_hd__inv_2
*CAP
1 *417:A3 0
2 *416:B 0.000567703
3 *415:Y 0.00024074
4 *53:10 0.000808443
5 *53:10 *415:A 2.79137e-05
6 *53:10 *78:24 4.22003e-05
7 *403:C *416:B 0.000110869
8 *403:C *53:10 0.000231916
9 *406:A1 *416:B 0.000215075
10 *406:A1 *53:10 0.000244225
*RES
1 *415:Y *53:10 8.76 
2 *53:10 *416:B 12.72 
3 *53:10 *417:A3 3.6 
*END

*D_NET *54 0.00116523
*CONN
*I *417:B1 I *D sky130_fd_sc_hd__a31oi_1
*I *416:Y O *D sky130_fd_sc_hd__nor2_1
*CAP
1 *417:B1 0.000378876
2 *416:Y 0.000378876
3 *417:B1 *139:8 0.000196699
4 *417:A1 *417:B1 9.01253e-05
5 *418:D *417:B1 0.000120657
*RES
1 *416:Y *417:B1 14.28 
*END

*D_NET *55 0.00213907
*CONN
*I *303:A_N I *D sky130_fd_sc_hd__nand2b_1
*I *322:A1 I *D sky130_fd_sc_hd__o21ai_1
*I *309:C I *D sky130_fd_sc_hd__nand3_1
*I *301:Y O *D sky130_fd_sc_hd__nor2_1
*CAP
1 *303:A_N 0
2 *322:A1 0.000267186
3 *309:C 0.000144541
4 *301:Y 0.000104431
5 *55:14 0.000557085
6 *55:10 0.000249789
7 *309:C *56:24 4.88147e-05
8 *309:C *143:22 8.61974e-05
9 *322:A1 *317:B 0.000159702
10 *322:A1 *330:A 1.31297e-05
11 *322:A1 *143:22 1.87913e-05
12 *55:10 *301:A 1.77595e-05
13 *55:10 *56:8 5.62119e-05
14 *55:10 *56:24 5.18317e-06
15 *55:14 *317:A 6.88421e-05
16 *55:14 *349:B 0.000132456
17 *55:14 *56:24 0.000192186
18 *55:14 *57:16 1.67631e-05
19 *55:14 *143:12 0
20 *430:A *55:14 0
*RES
1 *301:Y *55:10 5.43 
2 *55:10 *55:14 5.675 
3 *55:14 *309:C 7.865 
4 *55:14 *322:A1 5.08 
5 *55:10 *303:A_N 3.6 
*END

*D_NET *56 0.00646609
*CONN
*I *353:A I *D sky130_fd_sc_hd__or2_1
*I *354:B I *D sky130_fd_sc_hd__nand2_1
*I *303:B I *D sky130_fd_sc_hd__nand2b_1
*I *362:A1 I *D sky130_fd_sc_hd__o21ai_1
*I *315:B I *D sky130_fd_sc_hd__nand2_1
*I *321:A_N I *D sky130_fd_sc_hd__nand3b_1
*I *302:Y O *D sky130_fd_sc_hd__nand2_1
*CAP
1 *353:A 0.000315067
2 *354:B 2.0132e-05
3 *303:B 1.82042e-05
4 *362:A1 8.31663e-05
5 *315:B 1.17461e-05
6 *321:A_N 2.47558e-05
7 *302:Y 0
8 *56:72 0.000961774
9 *56:41 0.000318992
10 *56:24 0.00061994
11 *56:8 0.000561391
12 *56:4 0.000798658
13 *321:A_N *321:C 9.13949e-06
14 *353:A *340:A 0.000159179
15 *353:A *340:B 2.98587e-05
16 *353:A *355:A 5.61075e-05
17 *353:A *91:37 4.66108e-05
18 *353:A *151:10 0.000111946
19 *362:A1 *344:A 4.77719e-05
20 *362:A1 *362:B1 9.61642e-06
21 *362:A1 *94:24 6.56729e-05
22 *56:8 *141:14 0.00013375
23 *56:24 *317:A 2.44112e-05
24 *56:24 *349:A 0.000119246
25 *56:24 *349:B 9.08126e-05
26 *56:24 *57:8 6.13356e-05
27 *56:24 *57:16 2.48632e-05
28 *56:24 *143:12 0
29 *56:24 *143:22 2.5661e-05
30 *56:41 *315:A 4.77757e-05
31 *56:41 *316:A1 0.000236112
32 *56:41 *316:B1 0.000314339
33 *56:41 *322:B1 0.000240694
34 *56:41 *342:A 4.77769e-05
35 *56:41 *57:40 1.89978e-05
36 *56:41 *74:6 3.1876e-05
37 *56:41 *94:24 5.83586e-05
38 *56:72 *151:10 1.08758e-05
39 *56:72 *154:6 0.000112538
40 *56:72 *154:12 4.77757e-05
41 *56:72 *155:16 0.000197836
42 *309:C *56:24 4.88147e-05
43 *435:A *56:72 4.89295e-05
44 *55:10 *56:8 5.62119e-05
45 *55:10 *56:24 5.18317e-06
46 *55:14 *56:24 0.000192186
*RES
1 *302:Y *56:4 1.6 
2 *56:4 *56:8 5.42 
3 *56:8 *56:24 13.77 
4 *56:24 *321:A_N 2.215 
5 *56:24 *56:41 7.5 
6 *56:41 *315:B 1.96 
7 *56:41 *362:A1 3.445 
8 *56:8 *303:B 3.8175 
9 *56:4 *56:72 10.14 
10 *56:72 *354:B 1.96 
11 *56:72 *353:A 11.585 
*END

*D_NET *57 0.00539723
*CONN
*I *307:A I *D sky130_fd_sc_hd__nand2_1
*I *316:A2 I *D sky130_fd_sc_hd__o21ai_1
*I *325:A I *D sky130_fd_sc_hd__nor2b_1
*I *329:A I *D sky130_fd_sc_hd__or2_1
*I *303:Y O *D sky130_fd_sc_hd__nand2b_1
*CAP
1 *307:A 0
2 *316:A2 3.27779e-05
3 *325:A 0.000155712
4 *329:A 1.02931e-05
5 *303:Y 6.83839e-05
6 *57:40 0.00135498
7 *57:16 0.00149497
8 *57:8 0.000341597
9 *316:A2 *330:A 2.49909e-05
10 *329:A *330:A 4.77719e-05
11 *329:A *330:B 4.77719e-05
12 *57:8 *349:B 1.06152e-05
13 *57:8 *350:B 8.82858e-05
14 *57:16 *316:A1 1.42229e-05
15 *57:16 *317:A 0.000112403
16 *57:16 *330:A 1.91597e-05
17 *57:16 *349:B 9.09788e-06
18 *57:16 *143:22 7.50972e-05