*SPEF "ieee 1481-1999"
*DESIGN "alu4bit"
*DATE "07:00:50 Friday August 09, 2024"
*VENDOR "The OpenROAD Project"
*PROGRAM "OpenROAD"
*VERSION "b16bda7e82721d10566ff7e2b68f1ff0be9f9e38"
*DESIGN_FLOW "NAME_SCOPE LOCAL" "PIN_CAP NONE"
*DIVIDER /
*DELIMITER :
*BUS_DELIMITER []
*T_UNIT 1 NS
*C_UNIT 1 PF
*R_UNIT 1 OHM
*L_UNIT 1 HENRY

*NAME_MAP
*3 a[0]
*4 a[1]
*5 a[2]
*6 a[3]
*7 b[0]
*8 b[1]
*9 b[2]
*10 b[3]
*11 carry_out
*12 clk
*13 control[0]
*14 control[1]
*15 control[2]
*16 result[0]
*17 result[1]
*18 result[2]
*19 result[3]
*20 zero
*21 _000_
*22 _001_
*23 _002_
*24 _003_
*25 _004_
*26 _005_
*27 _006_
*28 _007_
*29 _008_
*30 _009_
*31 _010_
*32 _011_
*33 _012_
*34 _013_
*35 _014_
*36 _015_
*37 _016_
*38 _017_
*39 _018_
*40 _019_
*41 _020_
*42 _021_
*43 _022_
*44 _023_
*45 _024_
*46 _025_
*47 _026_
*48 _027_
*49 _028_
*50 _029_
*51 _030_
*52 _031_
*53 _032_
*54 _033_
*55 _034_
*56 _035_
*57 _036_
*58 _037_
*59 _038_
*60 _039_
*61 _040_
*62 _041_
*63 _042_
*64 _043_
*65 _044_
*66 _045_
*67 _046_
*68 _047_
*69 _048_
*70 _049_
*71 _050_
*72 _051_
*73 _052_
*74 _053_
*75 _054_
*76 _055_
*77 _056_
*78 _057_
*79 _058_
*80 _059_
*81 _060_
*82 _061_
*83 _062_
*84 _063_
*85 _064_
*86 _065_
*87 _066_
*88 _067_
*89 _068_
*90 _069_
*91 _070_
*92 _071_
*93 _072_
*94 _073_
*95 _074_
*96 _075_
*97 _076_
*98 _077_
*99 _078_
*100 _079_
*101 _080_
*102 _081_
*103 _082_
*104 _083_
*105 _084_
*106 _085_
*107 _086_
*108 _087_
*109 _088_
*110 _089_
*111 _090_
*112 _091_
*113 _092_
*114 _093_
*115 _094_
*116 _095_
*117 _096_
*118 _097_
*119 _098_
*120 _099_
*121 _100_
*122 _101_
*123 _102_
*124 _103_
*125 _104_
*126 _105_
*127 _106_
*128 _107_
*129 _108_
*130 _109_
*131 _110_
*132 _111_
*133 _112_
*134 _113_
*135 _114_
*136 _115_
*137 _116_
*138 clknet_0_clk
*139 clknet_1_0__leaf_clk
*140 clknet_1_1__leaf_clk
*141 net1
*142 net10
*143 net11
*144 net12
*145 net13
*146 net14
*147 net15
*148 net16
*149 net17
*150 net18
*151 net2
*152 net3
*153 net4
*154 net5
*155 net6
*156 net7
*157 net8
*158 net9
*159 FILLER_0_0_15
*160 FILLER_0_0_20
*161 FILLER_0_0_27
*162 FILLER_0_0_3
*163 FILLER_0_0_35
*164 FILLER_0_0_47
*165 FILLER_0_0_55
*166 FILLER_0_0_57
*167 FILLER_0_0_69
*168 FILLER_0_10_20
*169 FILLER_0_10_29
*170 FILLER_0_10_3
*171 FILLER_0_10_38
*172 FILLER_0_10_50
*173 FILLER_0_10_56
*174 FILLER_0_11_18
*175 FILLER_0_11_24
*176 FILLER_0_11_28
*177 FILLER_0_11_34
*178 FILLER_0_11_38
*179 FILLER_0_11_46
*180 FILLER_0_11_51
*181 FILLER_0_11_55
*182 FILLER_0_11_57
*183 FILLER_0_11_9
*184 FILLER_0_12_20
*185 FILLER_0_12_3
*186 FILLER_0_12_33
*187 FILLER_0_12_45
*188 FILLER_0_12_54
*189 FILLER_0_12_58
*190 FILLER_0_13_13
*191 FILLER_0_13_20
*192 FILLER_0_13_29
*193 FILLER_0_13_3
*194 FILLER_0_13_43
*195 FILLER_0_13_48
*196 FILLER_0_13_57
*197 FILLER_0_13_69
*198 FILLER_0_13_9
*199 FILLER_0_1_14
*200 FILLER_0_1_18
*201 FILLER_0_1_39
*202 FILLER_0_1_54
*203 FILLER_0_1_6
*204 FILLER_0_2_41
*205 FILLER_0_3_10
*206 FILLER_0_3_22
*207 FILLER_0_3_26
*208 FILLER_0_3_30
*209 FILLER_0_3_34
*210 FILLER_0_3_6
*211 FILLER_0_3_61
*212 FILLER_0_4_10
*213 FILLER_0_4_14
*214 FILLER_0_4_24
*215 FILLER_0_4_29
*216 FILLER_0_4_3
*217 FILLER_0_4_41
*218 FILLER_0_4_53
*219 FILLER_0_4_62
*220 FILLER_0_5_13
*221 FILLER_0_5_21
*222 FILLER_0_5_3
*223 FILLER_0_5_39
*224 FILLER_0_5_46
*225 FILLER_0_5_50
*226 FILLER_0_5_54
*227 FILLER_0_5_60
*228 FILLER_0_5_67
*229 FILLER_0_5_9
*230 FILLER_0_6_22
*231 FILLER_0_6_27
*232 FILLER_0_6_3
*233 FILLER_0_6_33
*234 FILLER_0_6_61
*235 FILLER_0_6_9
*236 FILLER_0_7_11
*237 FILLER_0_7_17
*238 FILLER_0_7_22
*239 FILLER_0_7_29
*240 FILLER_0_7_41
*241 FILLER_0_7_46
*242 FILLER_0_7_54
*243 FILLER_0_7_57
*244 FILLER_0_7_7
*245 FILLER_0_8_20
*246 FILLER_0_8_27
*247 FILLER_0_8_3
*248 FILLER_0_8_39
*249 FILLER_0_8_46
*250 FILLER_0_8_58
*251 FILLER_0_8_64
*252 FILLER_0_9_11
*253 FILLER_0_9_3
*254 FILLER_0_9_54
*255 FILLER_0_9_61
*256 FILLER_0_9_73
*257 PHY_EDGE_ROW_0_Left_14
*258 PHY_EDGE_ROW_0_Right_0
*259 PHY_EDGE_ROW_10_Left_24
*260 PHY_EDGE_ROW_10_Right_10
*261 PHY_EDGE_ROW_11_Left_25
*262 PHY_EDGE_ROW_11_Right_11
*263 PHY_EDGE_ROW_12_Left_26
*264 PHY_EDGE_ROW_12_Right_12
*265 PHY_EDGE_ROW_13_Left_27
*266 PHY_EDGE_ROW_13_Right_13
*267 PHY_EDGE_ROW_1_Left_15
*268 PHY_EDGE_ROW_1_Right_1
*269 PHY_EDGE_ROW_2_Left_16
*270 PHY_EDGE_ROW_2_Right_2
*271 PHY_EDGE_ROW_3_Left_17
*272 PHY_EDGE_ROW_3_Right_3
*273 PHY_EDGE_ROW_4_Left_18
*274 PHY_EDGE_ROW_4_Right_4
*275 PHY_EDGE_ROW_5_Left_19
*276 PHY_EDGE_ROW_5_Right_5
*277 PHY_EDGE_ROW_6_Left_20
*278 PHY_EDGE_ROW_6_Right_6
*279 PHY_EDGE_ROW_7_Left_21
*280 PHY_EDGE_ROW_7_Right_7
*281 PHY_EDGE_ROW_8_Left_22
*282 PHY_EDGE_ROW_8_Right_8
*283 PHY_EDGE_ROW_9_Left_23
*284 PHY_EDGE_ROW_9_Right_9
*285 TAP_TAPCELL_ROW_0_28
*286 TAP_TAPCELL_ROW_0_29
*287 TAP_TAPCELL_ROW_10_39
*288 TAP_TAPCELL_ROW_11_40
*289 TAP_TAPCELL_ROW_12_41
*290 TAP_TAPCELL_ROW_13_42
*291 TAP_TAPCELL_ROW_13_43
*292 TAP_TAPCELL_ROW_1_30
*293 TAP_TAPCELL_ROW_2_31
*294 TAP_TAPCELL_ROW_3_32
*295 TAP_TAPCELL_ROW_4_33
*296 TAP_TAPCELL_ROW_5_34
*297 TAP_TAPCELL_ROW_6_35
*298 TAP_TAPCELL_ROW_7_36
*299 TAP_TAPCELL_ROW_8_37
*300 TAP_TAPCELL_ROW_9_38
*301 _117_
*302 _118_
*303 _119_
*304 _120_
*305 _121_
*306 _122_
*307 _123_
*308 _124_
*309 _125_
*310 _126_
*311 _127_
*312 _128_
*313 _129_
*314 _130_
*315 _131_
*316 _132_
*317 _133_
*318 _134_
*319 _135_
*320 _136_
*321 _137_
*322 _138_
*323 _139_
*324 _140_
*325 _141_
*326 _142_
*327 _143_
*328 _144_
*329 _145_
*330 _146_
*331 _147_
*332 _148_
*333 _149_
*334 _150_
*335 _151_
*336 _152_
*337 _153_
*338 _154_
*339 _155_
*340 _156_
*341 _157_
*342 _158_
*343 _159_
*344 _160_
*345 _161_
*346 _162_
*347 _163_
*348 _164_
*349 _165_
*350 _166_
*351 _167_
*352 _168_
*353 _169_
*354 _170_
*355 _171_
*356 _172_
*357 _173_
*358 _174_
*359 _175_
*360 _176_
*361 _177_
*362 _178_
*363 _179_
*364 _180_
*365 _181_
*366 _182_
*367 _183_
*368 _184_
*369 _185_
*370 _186_
*371 _187_
*372 _188_
*373 _189_
*374 _190_
*375 _191_
*376 _192_
*377 _193_
*378 _194_
*379 _195_
*380 _196_
*381 _197_
*382 _198_
*383 _199_
*384 _200_
*385 _201_
*386 _202_
*387 _203_
*388 _204_
*389 _205_
*390 _206_
*391 _207_
*392 _208_
*393 _209_
*394 _210_
*395 _211_
*396 _212_
*397 _213_
*398 _214_
*399 _215_
*400 _216_
*401 _217_
*402 _218_
*403 _219_
*404 _220_
*405 _221_
*406 _222_
*407 _223_
*408 _224_
*409 _225_
*410 _226_
*411 _227_
*412 _228_
*413 _229_
*414 _230_
*415 _231_
*416 _232_
*417 _233_
*418 _234_
*419 _235_
*420 _236_
*421 _237_
*422 _238_
*423 _239_
*424 clkbuf_0_clk
*425 clkbuf_1_0__f_clk
*426 clkbuf_1_1__f_clk
*427 hold1
*428 input1
*429 input10
*430 input11
*431 input2
*432 input3
*433 input4
*434 input5
*435 input6
*436 input7
*437 input8
*438 input9
*439 output12
*440 output13
*441 output14
*442 output15
*443 output16
*444 output17

*PORTS
a[0] I
a[1] I
a[2] I
a[3] I
b[0] I
b[1] I
b[2] I
b[3] I
carry_out O
clk I
control[0] I
control[1] I
control[2] I
result[0] O
result[1] O
result[2] O
result[3] O
zero O

*D_NET *3 0.000663564
*CONN
*P a[0] I
*I *428:A I *D sky130_fd_sc_hd__buf_1
*CAP
1 a[0] 0.000331782
2 *428:A 0.000331782
3 *428:A *434:A 0
*RES
1 a[0] *428:A 20.0143 
*END

*D_NET *4 0.000710296
*CONN
*P a[1] I
*I *431:A I *D sky130_fd_sc_hd__buf_1
*CAP
1 a[1] 0.000355148
2 *431:A 0.000355148
3 *431:A *435:A 0
*RES
1 a[1] *431:A 20.8357 
*END

*D_NET *5 0.000716813
*CONN
*P a[2] I
*I *432:A I *D sky130_fd_sc_hd__clkbuf_1
*CAP
1 a[2] 0.0003314
2 *432:A 0.0003314
3 *432:A *436:A 5.40137e-05
*RES
1 a[2] *432:A 21.5138 
*END

*D_NET *6 0.000616081
*CONN
*P a[3] I
*I *433:A I *D sky130_fd_sc_hd__buf_1
*CAP
1 a[3] 0.000282003
2 *433:A 0.000282003
3 *433:A *410:A 5.20751e-05
4 *433:A *437:A 0
*RES
1 a[3] *433:A 19.2107 
*END

*D_NET *7 0.000816793
*CONN
*P b[0] I
*I *434:A I *D sky130_fd_sc_hd__buf_1
*CAP
1 b[0] 0.000382502
2 *434:A 0.000382502
3 *434:A *302:B 1.02132e-05
4 *434:A *154:6 2.07878e-05
5 *434:A *154:12 2.07878e-05
6 *428:A *434:A 0
*RES
1 b[0] *434:A 21.2107 
*END

*D_NET *8 0.000760698
*CONN
*P b[1] I
*I *435:A I *D sky130_fd_sc_hd__buf_1
*CAP
1 b[1] 0.000352051
2 *435:A 0.000352051
3 *435:A *56:72 5.65955e-05
4 *431:A *435:A 0
*RES
1 b[1] *435:A 20.675 
*END

*D_NET *9 0.000749183
*CONN
*P b[2] I
*I *436:A I *D sky130_fd_sc_hd__buf_1
*CAP
1 b[2] 0.000347585
2 *436:A 0.000347585
3 *436:A *158:18 0
4 *432:A *436:A 5.40137e-05
*RES
1 b[2] *436:A 21.8174 
*END

*D_NET *10 0.000560209
*CONN
*P b[3] I
*I *437:A I *D sky130_fd_sc_hd__buf_1
*CAP
1 b[3] 0.000265649
2 *437:A 0.000265649
3 *437:A *388:B 2.89114e-05
4 *437:A *429:A 0
5 *433:A *437:A 0
*RES
1 b[3] *437:A 18.8 
*END

*D_NET *11 0.00132545
*CONN
*P carry_out O
*I *439:X O *D sky130_fd_sc_hd__buf_2
*CAP
1 carry_out 0.00059735
2 *439:X 0.00059735
3 carry_out result[3] 9.31761e-05
4 carry_out zero 0
5 carry_out *439:A 3.75712e-05
*RES
1 *439:X carry_out 19.9845 
*END

*D_NET *12 0.000951461
*CONN
*P clk I
*I *424:A I *D sky130_fd_sc_hd__clkbuf_16
*CAP
1 clk 0.000354735
2 *424:A 0.000354735
3 *424:A result[2] 8.04184e-05
4 *424:A zero 9.04894e-05
5 *424:A *442:A 7.10834e-05
*RES
1 clk *424:A 19.929 
*END

*D_NET *13 0.000809151
*CONN
*P control[0] I
*I *438:A I *D sky130_fd_sc_hd__buf_2
*CAP
1 control[0] 0.00040273
2 *438:A 0.00040273
3 *438:A *158:10 3.69047e-06
*RES
1 control[0] *438:A 23.7791 
*END

*D_NET *14 0.000666517
*CONN
*P control[1] I
*I *429:A I *D sky130_fd_sc_hd__buf_1
*CAP
1 control[1] 0.000333258
2 *429:A 0.000333258
3 *437:A *429:A 0
*RES
1 control[1] *429:A 19.8714 
*END

*D_NET *15 0.000886094
*CONN
*P control[2] I
*I *430:A I *D sky130_fd_sc_hd__clkbuf_4
*CAP
1 control[2] 0.000423464
2 *430:A 0.000423464
3 *430:A *55:14 0
4 *430:A *143:12 3.91668e-05
*RES
1 control[2] *430:A 20.6082 
*END

*D_NET *16 0.00111042
*CONN
*P result[0] O
*I *440:X O *D sky130_fd_sc_hd__buf_2
*CAP
1 result[0] 0.000526913
2 *440:X 0.000526913
3 result[0] result[1] 5.65933e-05
4 result[0] result[2] 0
*RES
1 *440:X result[0] 20.3767 
*END

*D_NET *17 0.00115457
*CONN
*P result[1] O
*I *441:X O *D sky130_fd_sc_hd__buf_2
*CAP
1 result[1] 0.000522951
2 *441:X 0.000522951
3 result[1] *441:A 5.20751e-05
4 result[0] result[1] 5.65933e-05
*RES
1 *441:X result[1] 25.0674 
*END

*D_NET *18 0.00153607
*CONN
*P result[2] O
*I *442:X O *D sky130_fd_sc_hd__buf_2
*CAP
1 result[2] 0.00070056
2 *442:X 0.00070056
3 result[2] zero 0
4 result[2] *442:A 5.45307e-05
5 result[0] result[2] 0
6 *424:A result[2] 8.04184e-05
*RES
1 *442:X result[2] 27.3907 
*END

*D_NET *19 0.00110633
*CONN
*P result[3] O
*I *443:X O *D sky130_fd_sc_hd__buf_2
*CAP
1 result[3] 0.000448864
2 *443:X 0.000448864
3 result[3] zero 0.000115429
4 carry_out result[3] 9.31761e-05
*RES
1 *443:X result[3] 19.7695 
*END

*D_NET *20 0.0013
*CONN
*P zero O
*I *444:X O *D sky130_fd_sc_hd__buf_2
*CAP
1 zero 0.000541946
2 *444:X 0.000541946
3 zero *444:A 1.01912e-05
4 carry_out zero 0
5 result[2] zero 0
6 result[3] zero 0.000115429
7 *424:A zero 9.04894e-05
*RES
1 *444:X zero 19.4507 
*END

*D_NET *21 0.000442609
*CONN
*I *423:D I *D sky130_fd_sc_hd__dfxtp_1
*I *409:Y O *D sky130_fd_sc_hd__nor2_1
*CAP
1 *423:D 0.000166718
2 *409:Y 0.000166718
3 *423:D *409:B 7.25873e-06
4 *423:D *423:CLK 0.000101915
*RES
1 *409:Y *423:D 30.283 
*END

*D_NET *22 0.00100197
*CONN
*I *418:D I *D sky130_fd_sc_hd__dfxtp_1
*I *417:Y O *D sky130_fd_sc_hd__a31oi_1
*CAP
1 *418:D 0.000293972
2 *417:Y 0.000293972
3 *418:D *411:C 2.11336e-05
4 *418:D *417:A1 0.000145686
5 *418:D *417:B1 0.000138688
6 *418:D *418:CLK 1.03904e-05
7 *418:D *78:24 9.8126e-05
*RES
1 *417:Y *418:D 32.7473 
*END

*D_NET *23 0.00341508
*CONN
*I *392:B I *D sky130_fd_sc_hd__nand3_1
*I *384:B I *D sky130_fd_sc_hd__nand2_1
*I *383:X O *D sky130_fd_sc_hd__or2b_1
*CAP
1 *392:B 0.000267804
2 *384:B 3.48416e-05
3 *383:X 0.00100147
4 *23:22 0.00130411
5 *384:B *384:A 5.04841e-06
6 *384:B *390:A 7.48927e-06
7 *392:B *384:A 8.10737e-06
8 *392:B *390:A 0.000100165
9 *392:B *392:A 2.59355e-05
10 *392:B *393:C 3.45371e-05
11 *392:B *411:C 2.98186e-06
12 *392:B *30:8 4.71921e-05
13 *23:22 *388:B 2.84026e-05
14 *23:22 *400:B 0.000174742
15 *23:22 *411:C 1.70742e-05
16 *23:22 *28:30 7.69776e-06
17 *23:22 *29:42 0.000326789
18 *23:22 *142:10 7.69776e-06
19 *23:22 *153:14 1.29901e-05
*RES
1 *383:X *23:22 32.3909 
2 *23:22 *384:B 10.0321 
3 *23:22 *392:B 13.1393 
*END

*D_NET *24 0.000228639
*CONN
*I *390:A I *D sky130_fd_sc_hd__nand2_1
*I *384:Y O *D sky130_fd_sc_hd__nand2_1
*CAP
1 *390:A 3.40741e-05
2 *384:Y 3.40741e-05
3 *390:A *384:A 4.11822e-05
4 *390:A *411:C 1.16543e-05
5 *384:B *390:A 7.48927e-06
6 *392:B *390:A 0.000100165
*RES
1 *384:Y *390:A 19.975 
*END

*D_NET *25 0.00018361
*CONN
*I *387:A I *D sky130_fd_sc_hd__nand2_1
*I *385:Y O *D sky130_fd_sc_hd__inv_2
*CAP
1 *387:A 1.42431e-05
2 *385:Y 1.42431e-05
3 *387:A *388:A 5.4959e-05
4 *387:A *27:6 0.000100165
*RES
1 *385:Y *387:A 19.5464 
*END

*D_NET *26 0.00300177
*CONN
*I *410:A I *D sky130_fd_sc_hd__nand2_1
*I *387:B I *D sky130_fd_sc_hd__nand2_1
*I *399:A2 I *D sky130_fd_sc_hd__o2111a_1
*I *386:Y O *D sky130_fd_sc_hd__inv_2
*CAP
1 *410:A 0.000338534
2 *387:B 0.000151358
3 *399:A2 0.000123058
4 *386:Y 0
5 *26:10 0.000603569
6 *26:4 0.000667687
7 *387:B *388:A 1.84885e-05
8 *387:B *395:A2 3.29552e-06
9 *387:B *27:6 5.50052e-05
10 *399:A2 *304:A 0.00010403
11 *399:A2 *395:A2 7.43395e-05
12 *399:A2 *399:C1 4.68059e-05
13 *399:A2 *29:12 0
14 *399:A2 *66:10 0.000139331
15 *399:A2 *142:10 6.65836e-05
16 *410:A *410:B 2.50022e-05
17 *410:A *153:10 0.000146255
18 *26:10 *386:A 4.98309e-05
19 *26:10 *388:B 0.000143633
20 *26:10 *29:12 0
21 *26:10 *142:10 0.000192889
22 *433:A *410:A 5.20751e-05
*RES
1 *386:Y *26:4 9.3 
2 *26:4 *26:10 10.0536 
3 *26:10 *399:A2 17.4071 
4 *26:10 *387:B 16.0143 
5 *26:4 *410:A 24.3893 
*END

*D_NET *27 0.000947369
*CONN
*I *389:A I *D sky130_fd_sc_hd__nand2_2
*I *395:A3 I *D sky130_fd_sc_hd__a31oi_1
*I *387:Y O *D sky130_fd_sc_hd__nand2_1
*CAP
1 *389:A 5.16483e-05
2 *395:A3 9.00799e-05
3 *387:Y 0.000127919
4 *27:6 0.000269647
5 *389:A *153:14 1.59373e-05
6 *395:A3 *395:A1 3.31455e-05
7 *395:A3 *29:12 0.000142469
8 *27:6 *388:A 2.71018e-05
9 *27:6 *153:14 3.42509e-05
10 *387:A *27:6 0.000100165
11 *387:B *27:6 5.50052e-05
*RES
1 *387:Y *27:6 11.8893 
2 *27:6 *395:A3 20.2464 
3 *27:6 *389:A 10.2643 
*END

*D_NET *28 0.00465256
*CONN
*I *413:B I *D sky130_fd_sc_hd__nand2_1
*I *397:A2 I *D sky130_fd_sc_hd__a21oi_1
*I *394:A I *D sky130_fd_sc_hd__nand2_1
*I *389:B I *D sky130_fd_sc_hd__nand2_2
*I *388:Y O *D sky130_fd_sc_hd__nand2_1
*CAP
1 *413:B 0.000641741
2 *397:A2 8.83376e-05
3 *394:A 0
4 *389:B 1.72843e-05
5 *388:Y 0.000455518
6 *28:30 0.00107396
7 *28:12 1.72843e-05
8 *28:10 0.000799399
9 *389:B *395:A1 2.84026e-05
10 *389:B *153:14 2.84026e-05
11 *397:A2 *395:B1 0.000105886
12 *397:A2 *400:A 1.90936e-05
13 *413:B *391:A 7.96525e-06
14 *413:B *400:B 4.32593e-05
15 *413:B *413:A 0.000104926
16 *413:B *414:A 3.40684e-05
17 *413:B *417:A2 9.35114e-06
18 *413:B *29:42 5.48124e-05
19 *413:B *31:29 5.67596e-05
20 *413:B *65:62 4.28585e-05
21 *28:10 *388:A 0.000268835
22 *28:10 *388:B 3.69047e-06
23 *28:10 *394:B 2.10582e-05
24 *28:10 *410:B 5.11396e-07
25 *28:10 *153:10 7.35585e-06
26 *28:10 *153:14 0.000257474
27 *28:30 *394:B 3.47641e-06
28 *28:30 *395:A1 0.000144162
29 *28:30 *397:B1 1.85762e-05
30 *28:30 *400:B 0.000290413
31 *23:22 *28:30 7.69776e-06
*RES
1 *388:Y *28:10 20.3 
2 *28:10 *28:12 4.5 
3 *28:12 *389:B 9.83571 
4 *28:12 *394:A 9.3 
5 *28:10 *28:30 6.59476 
6 *28:30 *397:A2 18.8618 
7 *28:30 *413:B 21.5057 
*END

*D_NET *29 0.00503826
*CONN
*I *391:A I *D sky130_fd_sc_hd__inv_2
*I *402:B I *D sky130_fd_sc_hd__nand2_1
*I *390:B I *D sky130_fd_sc_hd__nand2_1
*I *396:B I *D sky130_fd_sc_hd__nor2_1
*I *399:D1 I *D sky130_fd_sc_hd__o2111a_1
*I *389:Y O *D sky130_fd_sc_hd__nand2_2
*CAP
1 *391:A 0.000120617
2 *402:B 0.000218444
3 *390:B 1.51608e-05
4 *396:B 0.000152202
5 *399:D1 4.81004e-05
6 *389:Y 0
7 *29:44 0.000233604
8 *29:42 0.0006601
9 *29:12 0.000390864
10 *29:6 0.000730044
11 *390:B *384:A 4.6025e-06
12 *390:B *129:16 3.43988e-06
13 *391:A *394:B 0.000196856
14 *391:A *31:29 0.000196994
15 *396:B *395:A2 0.000146853
16 *396:B *396:A 5.50052e-05
17 *396:B *398:A 3.37953e-05
18 *396:B *66:10 0.000150917
19 *396:B *66:21 2.28343e-05
20 *396:B *72:25 8.1932e-05
21 *396:B *111:53 0.000182676
22 *399:D1 *395:A2 6.05161e-06
23 *399:D1 *66:10 2.59355e-05
24 *402:B *392:C 4.31941e-05
25 *402:B *402:A 2.14781e-05
26 *402:B *412:B 6.16563e-05
27 *402:B *413:A 3.54605e-05
28 *402:B *129:16 3.43988e-06
29 *29:12 *385:A 1.00887e-05
30 *29:12 *395:A1 0
31 *29:12 *395:A2 7.06687e-05
32 *29:12 *398:A 6.05161e-06
33 *29:12 *400:B 2.06178e-05
34 *29:12 *66:10 2.85321e-05
35 *29:42 *394:B 0.000511281
36 *29:42 *400:B 1.67249e-05
37 *395:A3 *29:12 0.000142469
38 *399:A2 *29:12 0
39 *413:B *391:A 7.96525e-06
40 *413:B *29:42 5.48124e-05
41 *23:22 *29:42 0.000326789
42 *26:10 *29:12 0
*RES
1 *389:Y *29:6 13.8 
2 *29:6 *29:12 8.41071 
3 *29:12 *399:D1 10.2643 
4 *29:12 *396:B 23.3536 
5 *29:6 *29:42 4.7542 
6 *29:42 *29:44 3.41 
7 *29:44 *390:B 14.0768 
8 *29:44 *402:B 17.5054 
9 *29:42 *391:A 17.8941 
*END

*D_NET *30 0.00126185
*CONN
*I *411:A I *D sky130_fd_sc_hd__nand3_1
*I *393:A I *D sky130_fd_sc_hd__nand3_1
*I *390:Y O *D sky130_fd_sc_hd__nand2_1
*CAP
1 *411:A 8.21744e-06
2 *393:A 0
3 *390:Y 0.000174844
4 *30:8 0.000183061
5 *411:A *393:B 5.65955e-05
6 *411:A *411:C 2.36643e-05
7 *30:8 *384:A 0.000100165
8 *30:8 *392:A 9.67754e-05
9 *30:8 *393:B 2.90487e-05
10 *30:8 *393:C 0.000158101
11 *30:8 *411:C 0.000384184
12 *392:B *30:8 4.71921e-05
*RES
1 *390:Y *30:8 16.0143 
2 *30:8 *393:A 9.3 
3 *30:8 *411:A 9.83571 
*END

*D_NET *31 0.00305264
*CONN
*I *412:B I *D sky130_fd_sc_hd__nand2_1
*I *392:C I *D sky130_fd_sc_hd__nand3_1
*I *403:C I *D sky130_fd_sc_hd__nand3_1
*I *391:Y O *D sky130_fd_sc_hd__inv_2
*CAP
1 *412:B 0.000171794
2 *392:C 2.34929e-05
3 *403:C 0.00039258
4 *391:Y 9.20245e-05
5 *31:29 0.000485244
6 *31:8 0.000774562
7 *392:C *129:16 1.8038e-05
8 *403:C *394:B 0
9 *403:C *403:A 3.49456e-06
10 *403:C *405:A 1.48543e-05
11 *403:C *406:A2 2.64262e-06
12 *403:C *406:B1 5.49489e-05
13 *403:C *413:A 2.62951e-05
14 *403:C *416:B 0.00012135
15 *403:C *53:10 0.000255035
16 *412:B *402:A 5.66971e-05
17 *412:B *41:12 3.67279e-06
18 *412:B *129:16 5.39332e-05
19 *31:8 *393:C 0.000143375
20 *391:A *31:29 0.000196994
21 *402:B *392:C 4.31941e-05
22 *402:B *412:B 6.16563e-05
23 *413:B *31:29 5.67596e-05
*RES
1 *391:Y *31:8 15.1571 
2 *31:8 *403:C 20.5679 
3 *31:8 *31:29 7.44353 
4 *31:29 *392:C 14.3804 
5 *31:29 *412:B 16.7732 
*END

*D_NET *32 0.000622588
*CONN
*I *393:C I *D sky130_fd_sc_hd__nand3_1
*I *392:Y O *D sky130_fd_sc_hd__nand3_1
*CAP
1 *393:C 0.000137069
2 *392:Y 0.000137069
3 *393:C *392:A 1.24368e-05
4 *392:B *393:C 3.45371e-05
5 *30:8 *393:C 0.000158101
6 *31:8 *393:C 0.000143375
*RES
1 *392:Y *393:C 22.0286 
*END

*D_NET *33 0.00141105
*CONN
*I *406:A1 I *D sky130_fd_sc_hd__a21oi_1
*I *393:Y O *D sky130_fd_sc_hd__nand3_1
*CAP
1 *406:A1 0.000398197
2 *393:Y 0.000398197
3 *406:A1 *406:B1 5.49544e-05
4 *406:A1 *411:C 5.49544e-05
5 *406:A1 *416:B 0.00023592
6 *406:A1 *53:10 0.000268826
*RES
1 *393:Y *406:A1 35.1714 
*END

*D_NET *34 0.0005401
*CONN
*I *395:A1 I *D sky130_fd_sc_hd__a31oi_1
*I *394:Y O *D sky130_fd_sc_hd__nand2_1
*CAP
1 *395:A1 0.000152994
2 *394:Y 0.000152994
3 *395:A1 *398:A 2.84026e-05
4 *389:B *395:A1 2.84026e-05
5 *395:A3 *395:A1 3.31455e-05
6 *28:30 *395:A1 0.000144162
7 *29:12 *395:A1 0
*RES
1 *394:Y *395:A1 30.6179 
*END

*D_NET *35 0.000940364
*CONN
*I *398:A I *D sky130_fd_sc_hd__nand2_1
*I *395:Y O *D sky130_fd_sc_hd__a31oi_1
*CAP
1 *398:A 0.000325545
2 *395:Y 0.000325545
3 *398:A *395:A2 1.85689e-05
4 *398:A *395:B1 6.05161e-06
5 *398:A *397:B1 9.99853e-05
6 *398:A *66:10 6.45442e-05
7 *398:A *111:53 3.18747e-05
8 *395:A1 *398:A 2.84026e-05
9 *396:B *398:A 3.37953e-05
10 *29:12 *398:A 6.05161e-06
*RES
1 *395:Y *398:A 33.2071 
*END

*D_NET *36 0.00105528
*CONN
*I *397:B1 I *D sky130_fd_sc_hd__a21oi_1
*I *396:Y O *D sky130_fd_sc_hd__nor2_1
*CAP
1 *397:B1 0.000210844
2 *396:Y 0.000210844
3 *397:B1 *395:B1 5.49995e-05
4 *397:B1 *397:A1 0.00016571
5 *397:B1 *398:B 0.000128051
6 *397:B1 *400:A 0.000138705
7 *397:B1 *111:53 2.7569e-05
8 *398:A *397:B1 9.99853e-05
9 *28:30 *397:B1 1.85762e-05
*RES
1 *396:Y *397:B1 32.975 
*END

*D_NET *37 0.000419369
*CONN
*I *398:B I *D sky130_fd_sc_hd__nand2_1
*I *397:Y O *D sky130_fd_sc_hd__a21oi_1
*CAP
1 *398:B 0.00011956
2 *397:Y 0.00011956
3 *398:B *397:A1 2.37944e-05
4 *398:B *111:53 2.84026e-05
5 *397:B1 *398:B 0.000128051
*RES
1 *397:Y *398:B 30.0821 
*END

*D_NET *38 0.000909698
*CONN
*I *400:A I *D sky130_fd_sc_hd__nor2_1
*I *398:Y O *D sky130_fd_sc_hd__nand2_1
*CAP
1 *400:A 0.000322302
2 *398:Y 0.000322302
3 *400:A *395:B1 2.73852e-05
4 *400:A *397:A1 6.49282e-05
5 *400:A *400:B 4.6025e-06
6 *400:A *111:53 1.03807e-05
7 *397:A2 *400:A 1.90936e-05
8 *397:B1 *400:A 0.000138705
*RES
1 *398:Y *400:A 32.1357 
*END

*D_NET *39 0.00146801
*CONN
*I *400:B I *D sky130_fd_sc_hd__nor2_1
*I *399:X O *D sky130_fd_sc_hd__o2111a_1
*CAP
1 *400:B 0.000454155
2 *399:X 0.000454155
3 *400:B *395:A2 9.34255e-06
4 *400:A *400:B 4.6025e-06
5 *413:B *400:B 4.32593e-05
6 *23:22 *400:B 0.000174742
7 *28:30 *400:B 0.000290413
8 *29:12 *400:B 2.06178e-05
9 *29:42 *400:B 1.67249e-05
*RES
1 *399:X *400:B 35.9574 
*END

*D_NET *40 0.00187542
*CONN
*I *406:A2 I *D sky130_fd_sc_hd__a21oi_1
*I *400:Y O *D sky130_fd_sc_hd__nor2_1
*CAP
1 *406:A2 0.000686808
2 *400:Y 0.000686808
3 *406:A2 *395:B1 5.49489e-05
4 *406:A2 *402:A 2.12733e-05
5 *406:A2 *403:B 4.37451e-05
6 *406:A2 *404:A 3.54498e-05
7 *406:A2 *405:A 0.000222446
8 *406:A2 *406:B1 2.91496e-05
9 *406:A2 *413:A 5.66971e-05
10 *406:A2 *41:12 3.54498e-05
11 *403:C *406:A2 2.64262e-06
*RES
1 *400:Y *406:A2 36.9036 
*END

*D_NET *41 0.000749355
*CONN
*I *402:A I *D sky130_fd_sc_hd__nand2_1
*I *412:A I *D sky130_fd_sc_hd__nand2_1
*I *401:Y O *D sky130_fd_sc_hd__nand2_1
*CAP
1 *402:A 6.74493e-05
2 *412:A 0
3 *401:Y 0.000160294
4 *41:12 0.000227743
5 *402:A *413:A 0.000100165
6 *402:A *414:A 0
7 *41:12 *395:B1 2.66087e-05
8 *41:12 *403:B 2.85234e-05
9 *41:12 *129:16 0
10 *402:B *402:A 2.14781e-05
11 *406:A2 *402:A 2.12733e-05
12 *406:A2 *41:12 3.54498e-05
13 *412:B *402:A 5.66971e-05
14 *412:B *41:12 3.67279e-06
*RES
1 *401:Y *41:12 20.7821 
2 *41:12 *412:A 9.3 
3 *41:12 *402:A 11.5143 
*END

*D_NET *42 0.000333447
*CONN
*I *404:A I *D sky130_fd_sc_hd__nand3_1
*I *402:Y O *D sky130_fd_sc_hd__nand2_1
*CAP
1 *404:A 7.11234e-05
2 *402:Y 7.11234e-05
3 *404:A *404:B 1.00887e-05
4 *404:A *129:16 0.000145662
5 *406:A2 *404:A 3.54498e-05
*RES
1 *402:Y *404:A 29.5464 
*END

*D_NET *43 0.000484812
*CONN
*I *404:C I *D sky130_fd_sc_hd__nand3_1
*I *403:Y O *D sky130_fd_sc_hd__nand3_1
*CAP
1 *404:C 0.000151245
2 *403:Y 0.000151245
3 *404:C *401:A 2.24718e-05
4 *404:C *403:A 0.000147869
5 *404:C *111:53 1.19813e-05
*RES
1 *403:Y *404:C 20.7964 
*END

*D_NET *44 0.000546333
*CONN
*I *405:A I *D sky130_fd_sc_hd__inv_2
*I *404:Y O *D sky130_fd_sc_hd__nand3_1
*CAP
1 *405:A 0.000101579
2 *404:Y 0.000101579
3 *405:A *403:B 0.000105873
4 *403:C *405:A 1.48543e-05
5 *406:A2 *405:A 0.000222446
*RES
1 *404:Y *405:A 21.5107 
*END

*D_NET *45 0.00043214
*CONN
*I *406:B1 I *D sky130_fd_sc_hd__a21oi_1
*I *405:Y O *D sky130_fd_sc_hd__inv_2
*CAP
1 *406:B1 0.000144118
2 *405:Y 0.000144118
3 *406:B1 *137:10 4.85049e-06
4 *403:C *406:B1 5.49489e-05
5 *406:A1 *406:B1 5.49544e-05
6 *406:A2 *406:B1 2.91496e-05
*RES
1 *405:Y *406:B1 21.1893 
*END

*D_NET *46 0.0014761
*CONN
*I *408:A I *D sky130_fd_sc_hd__nand2_1
*I *407:Y O *D sky130_fd_sc_hd__nor2_1
*CAP
1 *408:A 0.000296879
2 *407:Y 0.000296879
3 *408:A *409:A 6.25736e-05
4 *408:A *419:D 1.24368e-05
5 *408:A *421:CLK 0.000317762
6 *408:A *421:D 0.00015078
7 *408:A *425:A 3.29297e-05
8 *408:A *426:A 0.00021009
9 *408:A *134:14 9.5768e-05
*RES
1 *407:Y *408:A 36.4036 
*END

*D_NET *47 0.00119306
*CONN
*I *409:A I *D sky130_fd_sc_hd__nor2_1
*I *408:Y O *D sky130_fd_sc_hd__nand2_1
*CAP
1 *409:A 0.000279232
2 *408:Y 0.000279232
3 *409:A *408:B 3.69047e-06
4 *409:A *421:D 7.58841e-05
5 *409:A *423:CLK 0.000176941
6 *409:A *425:A 0.000315503
7 *408:A *409:A 6.25736e-05
*RES
1 *408:Y *409:A 33.85 
*END

*D_NET *48 0.00231579
*CONN
*I *411:C I *D sky130_fd_sc_hd__nand3_1
*I *410:Y O *D sky130_fd_sc_hd__nand2_1
*CAP
1 *411:C 0.00080149
2 *410:Y 0.00080149
3 *411:C *384:A 0.000167483
4 *411:C *393:B 2.15773e-05
5 *411:C *417:A1 8.10737e-06
6 *390:A *411:C 1.16543e-05
7 *392:B *411:C 2.98186e-06
8 *406:A1 *411:C 5.49544e-05
9 *411:A *411:C 2.36643e-05
10 *418:D *411:C 2.11336e-05
11 *23:22 *411:C 1.70742e-05
12 *30:8 *411:C 0.000384184
*RES
1 *410:Y *411:C 31.1 
*END

*D_NET *49 0.00100343
*CONN
*I *417:A1 I *D sky130_fd_sc_hd__a31oi_1
*I *411:Y O *D sky130_fd_sc_hd__nand3_1
*CAP
1 *417:A1 0.000269291
2 *411:Y 0.000269291
3 *417:A1 *393:B 1.24368e-05
4 *417:A1 *417:B1 9.58121e-05
5 *417:A1 *418:CLK 7.74135e-05
6 *417:A1 *78:24 5.59503e-05
7 *417:A1 *139:19 6.94399e-05
8 *411:C *417:A1 8.10737e-06
9 *418:D *417:A1 0.000145686
*RES
1 *411:Y *417:A1 33.0821 
*END

*D_NET *50 0.000792125
*CONN
*I *413:A I *D sky130_fd_sc_hd__nand2_1
*I *412:Y O *D sky130_fd_sc_hd__nand2_1
*CAP
1 *413:A 0.000191385
2 *412:Y 0.000191385
3 *413:A *394:B 3.4846e-06
4 *413:A *414:A 5.49489e-05
5 *413:A *417:A2 1.59373e-05
6 *413:A *65:62 1.14416e-05
7 *402:A *413:A 0.000100165
8 *402:B *413:A 3.54605e-05
9 *403:C *413:A 2.62951e-05
10 *406:A2 *413:A 5.66971e-05
11 *413:B *413:A 0.000104926
*RES
1 *412:Y *413:A 31.7429 
*END

*D_NET *51 0.000221888
*CONN
*I *414:A I *D sky130_fd_sc_hd__nand2_1
*I *413:Y O *D sky130_fd_sc_hd__nand2_1
*CAP
1 *414:A 3.91699e-05
2 *413:Y 3.91699e-05
3 *414:A *417:A2 5.45307e-05
4 *402:A *414:A 0
5 *413:A *414:A 5.49489e-05
6 *413:B *414:A 3.40684e-05
*RES
1 *413:Y *414:A 19.975 
*END

*D_NET *52 0.000408409
*CONN
*I *417:A2 I *D sky130_fd_sc_hd__a31oi_1
*I *414:Y O *D sky130_fd_sc_hd__nand2_1
*CAP
1 *417:A2 0.000164295
2 *414:Y 0.000164295
3 *413:A *417:A2 1.59373e-05
4 *413:B *417:A2 9.35114e-06
5 *414:A *417:A2 5.45307e-05
*RES
1 *414:Y *417:A2 21.1893 
*END

*D_NET *53 0.00275984
*CONN
*I *417:A3 I *D sky130_fd_sc_hd__a31oi_1
*I *416:B I *D sky130_fd_sc_hd__nor2_1
*I *415:Y O *D sky130_fd_sc_hd__inv_2
*CAP
1 *417:A3 0
2 *416:B 0.000626473
3 *415:Y 0.000276225
4 *53:10 0.000902698
5 *53:10 *415:A 2.976e-05
6 *53:10 *78:24 4.35564e-05
7 *403:C *416:B 0.00012135
8 *403:C *53:10 0.000255035
9 *406:A1 *416:B 0.00023592
10 *406:A1 *53:10 0.000268826
*RES
1 *415:Y *53:10 19.9429 
2 *53:10 *416:B 24.6571 
3 *53:10 *417:A3 13.8 
*END

*D_NET *54 0.00130032
*CONN
*I *417:B1 I *D sky130_fd_sc_hd__a31oi_1
*I *416:Y O *D sky130_fd_sc_hd__nor2_1
*CAP
1 *417:B1 0.000419321
2 *416:Y 0.000419321
3 *417:B1 *139:8 0.000227179
4 *417:A1 *417:B1 9.58121e-05
5 *418:D *417:B1 0.000138688
*RES
1 *416:Y *417:B1 36.0286 
*END

*D_NET *55 0.00240357
*CONN
*I *303:A_N I *D sky130_fd_sc_hd__nand2b_1
*I *322:A1 I *D sky130_fd_sc_hd__o21ai_1
*I *309:C I *D sky130_fd_sc_hd__nand3_1
*I *301:Y O *D sky130_fd_sc_hd__nor2_1
*CAP
1 *303:A_N 0
2 *322:A1 0.000306019
3 *309:C 0.000168851
4 *301:Y 0.000119137
5 *55:14 0.00064328
6 *55:10 0.000287546
7 *309:C *56:24 4.93964e-05
8 *309:C *143:22 8.60102e-05
9 *322:A1 *317:B 0.000184297
10 *322:A1 *71:24 1.34631e-05
11 *322:A1 *143:22 1.8226e-05
12 *55:10 *301:A 1.83053e-05
13 *55:10 *56:8 5.70695e-05
14 *55:10 *56:24 5.37741e-06
15 *55:14 *317:A 7.54868e-05
16 *55:14 *349:B 0.000145477
17 *55:14 *56:24 0.000208833
18 *55:14 *57:16 1.67953e-05
19 *55:14 *143:12 0
20 *430:A *55:14 0
*RES
1 *301:Y *55:10 15.9786 
2 *55:10 *55:14 8.875 
3 *55:14 *309:C 20.9964 
4 *55:14 *322:A1 13.4429 
5 *55:10 *303:A_N 13.8 
*END

*D_NET *56 0.00720016
*CONN
*I *353:A I *D sky130_fd_sc_hd__or2_1
*I *354:B I *D sky130_fd_sc_hd__nand2_1
*I *303:B I *D sky130_fd_sc_hd__nand2b_1
*I *362:A1 I *D sky130_fd_sc_hd__o21ai_1
*I *315:B I *D sky130_fd_sc_hd__nand2_1
*I *321:A_N I *D sky130_fd_sc_hd__nand3b_1
*I *302:Y O *D sky130_fd_sc_hd__nand2_1
*CAP
1 *353:A 0.000349028
2 *354:B 2.13113e-05
3 *303:B 2.06376e-05
4 *362:A1 9.22736e-05
5 *315:B 1.2453e-05
6 *321:A_N 2.63138e-05
7 *302:Y 0
8 *56:72 0.00104881
9 *56:41 0.000363325
10 *56:24 0.000705968
11 *56:8 0.000634712
12 *56:4 0.000871487
13 *321:A_N *321:C 1.02132e-05
14 *353:A *340:A 0.000183711
15 *353:A *340:B 3.2923e-05
16 *353:A *355:A 6.41579e-05
17 *353:A *91:37 5.33005e-05
18 *353:A *151:10 0.000129504
19 *362:A1 *344:A 5.49489e-05
20 *362:A1 *362:B1 1.00295e-05
21 *362:A1 *94:24 7.03731e-05
22 *56:8 *141:14 0.000146994
23 *56:24 *317:A 2.51903e-05
24 *56:24 *349:A 0.000136682
25 *56:24 *349:B 9.97164e-05
26 *56:24 *57:8 6.23879e-05
27 *56:24 *57:16 2.41405e-05
28 *56:24 *143:12 0
29 *56:24 *143:22 2.39506e-05
30 *56:41 *315:A 5.49544e-05
31 *56:41 *316:A1 0.000267671
32 *56:41 *316:B1 0.000354745
33 *56:41 *322:B1 0.000275515
34 *56:41 *342:A 5.49995e-05
35 *56:41 *57:40 1.88412e-05
36 *56:41 *74:6 3.29284e-05
37 *56:41 *94:24 6.25416e-05
38 *56:72 *151:10 1.24368e-05
39 *56:72 *154:6 0.00013017
40 *56:72 *154:12 5.49544e-05
41 *56:72 *155:16 0.000228592
42 *309:C *56:24 4.93964e-05
43 *435:A *56:72 5.65955e-05
44 *55:10 *56:8 5.70695e-05
45 *55:10 *56:24 5.37741e-06
46 *55:14 *56:24 0.000208833
*RES
1 *302:Y *56:4 9.3 
2 *56:4 *56:8 8.57143 
3 *56:8 *56:24 22.75 
4 *56:24 *321:A_N 10.0321 
5 *56:24 *56:41 8.92857 
6 *56:41 *315:B 9.72857 
7 *56:41 *362:A1 11.4964 
8 *56:8 *303:B 14.0589 
9 *56:4 *56:72 12.0714 
10 *56:72 *354:B 9.72857 
11 *56:72 *353:A 25.425 
*END

*D_NET *57 0.00610601
*CONN
*I *307:A I *D sky130_fd_sc_hd__nand2_1
*I *316:A2 I *D sky130_fd_sc_hd__o21ai_1
*I *325:A I *D sky130_fd_sc_hd__nor2b_1
*I *329:A I *D sky130_fd_sc_hd__or2_1
*I *303:Y O *D sky130_fd_sc_hd__nand2b_1
*CAP
1 *307:A 0
2 *316:A2 3.88965e-05
3 *325:A 0.000171754
4 *329:A 1.21804e-05
5 *303:Y 7.98766e-05
6 *57:40 0.00155586
7 *57:16 0.00172572
8 *57:8 0.000394777
9 *316:A2 *71:24 2.59355e-05
10 *329:A *330:A 5.49489e-05
11 *329:A *330:B 5.49489e-05
12 *57:8 *349:B 9.96458e-06
13 *57:8 *350:B 9.06726e-05