*SPEF "ieee 1481-1999"
*DESIGN "alu4bit"
*DATE "07:00:48 Friday August 09, 2024"
*VENDOR "The OpenROAD Project"
*PROGRAM "OpenROAD"
*VERSION "b16bda7e82721d10566ff7e2b68f1ff0be9f9e38"
*DESIGN_FLOW "NAME_SCOPE LOCAL" "PIN_CAP NONE"
*DIVIDER /
*DELIMITER :
*BUS_DELIMITER []
*T_UNIT 1 NS
*C_UNIT 1 PF
*R_UNIT 1 OHM
*L_UNIT 1 HENRY

*NAME_MAP
*3 a[0]
*4 a[1]
*5 a[2]
*6 a[3]
*7 b[0]
*8 b[1]
*9 b[2]
*10 b[3]
*11 carry_out
*12 clk
*13 control[0]
*14 control[1]
*15 control[2]
*16 result[0]
*17 result[1]
*18 result[2]
*19 result[3]
*20 zero
*21 _000_
*22 _001_
*23 _002_
*24 _003_
*25 _004_
*26 _005_
*27 _006_
*28 _007_
*29 _008_
*30 _009_
*31 _010_
*32 _011_
*33 _012_
*34 _013_
*35 _014_
*36 _015_
*37 _016_
*38 _017_
*39 _018_
*40 _019_
*41 _020_
*42 _021_
*43 _022_
*44 _023_
*45 _024_
*46 _025_
*47 _026_
*48 _027_
*49 _028_
*50 _029_
*51 _030_
*52 _031_
*53 _032_
*54 _033_
*55 _034_
*56 _035_
*57 _036_
*58 _037_
*59 _038_
*60 _039_
*61 _040_
*62 _041_
*63 _042_
*64 _043_
*65 _044_
*66 _045_
*67 _046_
*68 _047_
*69 _048_
*70 _049_
*71 _050_
*72 _051_
*73 _052_
*74 _053_
*75 _054_
*76 _055_
*77 _056_
*78 _057_
*79 _058_
*80 _059_
*81 _060_
*82 _061_
*83 _062_
*84 _063_
*85 _064_
*86 _065_
*87 _066_
*88 _067_
*89 _068_
*90 _069_
*91 _070_
*92 _071_
*93 _072_
*94 _073_
*95 _074_
*96 _075_
*97 _076_
*98 _077_
*99 _078_
*100 _079_
*101 _080_
*102 _081_
*103 _082_
*104 _083_
*105 _084_
*106 _085_
*107 _086_
*108 _087_
*109 _088_
*110 _089_
*111 _090_
*112 _091_
*113 _092_
*114 _093_
*115 _094_
*116 _095_
*117 _096_
*118 _097_
*119 _098_
*120 _099_
*121 _100_
*122 _101_
*123 _102_
*124 _103_
*125 _104_
*126 _105_
*127 _106_
*128 _107_
*129 _108_
*130 _109_
*131 _110_
*132 _111_
*133 _112_
*134 _113_
*135 _114_
*136 _115_
*137 _116_
*138 clknet_0_clk
*139 clknet_1_0__leaf_clk
*140 clknet_1_1__leaf_clk
*141 net1
*142 net10
*143 net11
*144 net12
*145 net13
*146 net14
*147 net15
*148 net16
*149 net17
*150 net18
*151 net2
*152 net3
*153 net4
*154 net5
*155 net6
*156 net7
*157 net8
*158 net9
*159 FILLER_0_0_15
*160 FILLER_0_0_20
*161 FILLER_0_0_27
*162 FILLER_0_0_3
*163 FILLER_0_0_35
*164 FILLER_0_0_47
*165 FILLER_0_0_55
*166 FILLER_0_0_57
*167 FILLER_0_0_69
*168 FILLER_0_10_20
*169 FILLER_0_10_29
*170 FILLER_0_10_3
*171 FILLER_0_10_38
*172 FILLER_0_10_50
*173 FILLER_0_10_56
*174 FILLER_0_11_18
*175 FILLER_0_11_24
*176 FILLER_0_11_28
*177 FILLER_0_11_34
*178 FILLER_0_11_38
*179 FILLER_0_11_46
*180 FILLER_0_11_51
*181 FILLER_0_11_55
*182 FILLER_0_11_57
*183 FILLER_0_11_9
*184 FILLER_0_12_20
*185 FILLER_0_12_3
*186 FILLER_0_12_33
*187 FILLER_0_12_45
*188 FILLER_0_12_54
*189 FILLER_0_12_58
*190 FILLER_0_13_13
*191 FILLER_0_13_20
*192 FILLER_0_13_29
*193 FILLER_0_13_3
*194 FILLER_0_13_43
*195 FILLER_0_13_48
*196 FILLER_0_13_57
*197 FILLER_0_13_69
*198 FILLER_0_13_9
*199 FILLER_0_1_14
*200 FILLER_0_1_18
*201 FILLER_0_1_39
*202 FILLER_0_1_54
*203 FILLER_0_1_6
*204 FILLER_0_2_41
*205 FILLER_0_3_10
*206 FILLER_0_3_22
*207 FILLER_0_3_26
*208 FILLER_0_3_30
*209 FILLER_0_3_34
*210 FILLER_0_3_6
*211 FILLER_0_3_61
*212 FILLER_0_4_10
*213 FILLER_0_4_14
*214 FILLER_0_4_24
*215 FILLER_0_4_29
*216 FILLER_0_4_3
*217 FILLER_0_4_41
*218 FILLER_0_4_53
*219 FILLER_0_4_62
*220 FILLER_0_5_13
*221 FILLER_0_5_21
*222 FILLER_0_5_3
*223 FILLER_0_5_39
*224 FILLER_0_5_46
*225 FILLER_0_5_50
*226 FILLER_0_5_54
*227 FILLER_0_5_60
*228 FILLER_0_5_67
*229 FILLER_0_5_9
*230 FILLER_0_6_22
*231 FILLER_0_6_27
*232 FILLER_0_6_3
*233 FILLER_0_6_33
*234 FILLER_0_6_61
*235 FILLER_0_6_9
*236 FILLER_0_7_11
*237 FILLER_0_7_17
*238 FILLER_0_7_22
*239 FILLER_0_7_29
*240 FILLER_0_7_41
*241 FILLER_0_7_46
*242 FILLER_0_7_54
*243 FILLER_0_7_57
*244 FILLER_0_7_7
*245 FILLER_0_8_20
*246 FILLER_0_8_27
*247 FILLER_0_8_3
*248 FILLER_0_8_39
*249 FILLER_0_8_46
*250 FILLER_0_8_58
*251 FILLER_0_8_64
*252 FILLER_0_9_11
*253 FILLER_0_9_3
*254 FILLER_0_9_54
*255 FILLER_0_9_61
*256 FILLER_0_9_73
*257 PHY_EDGE_ROW_0_Left_14
*258 PHY_EDGE_ROW_0_Right_0
*259 PHY_EDGE_ROW_10_Left_24
*260 PHY_EDGE_ROW_10_Right_10
*261 PHY_EDGE_ROW_11_Left_25
*262 PHY_EDGE_ROW_11_Right_11
*263 PHY_EDGE_ROW_12_Left_26
*264 PHY_EDGE_ROW_12_Right_12
*265 PHY_EDGE_ROW_13_Left_27
*266 PHY_EDGE_ROW_13_Right_13
*267 PHY_EDGE_ROW_1_Left_15
*268 PHY_EDGE_ROW_1_Right_1
*269 PHY_EDGE_ROW_2_Left_16
*270 PHY_EDGE_ROW_2_Right_2
*271 PHY_EDGE_ROW_3_Left_17
*272 PHY_EDGE_ROW_3_Right_3
*273 PHY_EDGE_ROW_4_Left_18
*274 PHY_EDGE_ROW_4_Right_4
*275 PHY_EDGE_ROW_5_Left_19
*276 PHY_EDGE_ROW_5_Right_5
*277 PHY_EDGE_ROW_6_Left_20
*278 PHY_EDGE_ROW_6_Right_6
*279 PHY_EDGE_ROW_7_Left_21
*280 PHY_EDGE_ROW_7_Right_7
*281 PHY_EDGE_ROW_8_Left_22
*282 PHY_EDGE_ROW_8_Right_8
*283 PHY_EDGE_ROW_9_Left_23
*284 PHY_EDGE_ROW_9_Right_9
*285 TAP_TAPCELL_ROW_0_28
*286 TAP_TAPCELL_ROW_0_29
*287 TAP_TAPCELL_ROW_10_39
*288 TAP_TAPCELL_ROW_11_40
*289 TAP_TAPCELL_ROW_12_41
*290 TAP_TAPCELL_ROW_13_42
*291 TAP_TAPCELL_ROW_13_43
*292 TAP_TAPCELL_ROW_1_30
*293 TAP_TAPCELL_ROW_2_31
*294 TAP_TAPCELL_ROW_3_32
*295 TAP_TAPCELL_ROW_4_33
*296 TAP_TAPCELL_ROW_5_34
*297 TAP_TAPCELL_ROW_6_35
*298 TAP_TAPCELL_ROW_7_36
*299 TAP_TAPCELL_ROW_8_37
*300 TAP_TAPCELL_ROW_9_38
*301 _117_
*302 _118_
*303 _119_
*304 _120_
*305 _121_
*306 _122_
*307 _123_
*308 _124_
*309 _125_
*310 _126_
*311 _127_
*312 _128_
*313 _129_
*314 _130_
*315 _131_
*316 _132_
*317 _133_
*318 _134_
*319 _135_
*320 _136_
*321 _137_
*322 _138_
*323 _139_
*324 _140_
*325 _141_
*326 _142_
*327 _143_
*328 _144_
*329 _145_
*330 _146_
*331 _147_
*332 _148_
*333 _149_
*334 _150_
*335 _151_
*336 _152_
*337 _153_
*338 _154_
*339 _155_
*340 _156_
*341 _157_
*342 _158_
*343 _159_
*344 _160_
*345 _161_
*346 _162_
*347 _163_
*348 _164_
*349 _165_
*350 _166_
*351 _167_
*352 _168_
*353 _169_
*354 _170_
*355 _171_
*356 _172_
*357 _173_
*358 _174_
*359 _175_
*360 _176_
*361 _177_
*362 _178_
*363 _179_
*364 _180_
*365 _181_
*366 _182_
*367 _183_
*368 _184_
*369 _185_
*370 _186_
*371 _187_
*372 _188_
*373 _189_
*374 _190_
*375 _191_
*376 _192_
*377 _193_
*378 _194_
*379 _195_
*380 _196_
*381 _197_
*382 _198_
*383 _199_
*384 _200_
*385 _201_
*386 _202_
*387 _203_
*388 _204_
*389 _205_
*390 _206_
*391 _207_
*392 _208_
*393 _209_
*394 _210_
*395 _211_
*396 _212_
*397 _213_
*398 _214_
*399 _215_
*400 _216_
*401 _217_
*402 _218_
*403 _219_
*404 _220_
*405 _221_
*406 _222_
*407 _223_
*408 _224_
*409 _225_
*410 _226_
*411 _227_
*412 _228_
*413 _229_
*414 _230_
*415 _231_
*416 _232_
*417 _233_
*418 _234_
*419 _235_
*420 _236_
*421 _237_
*422 _238_
*423 _239_
*424 clkbuf_0_clk
*425 clkbuf_1_0__f_clk
*426 clkbuf_1_1__f_clk
*427 hold1
*428 input1
*429 input10
*430 input11
*431 input2
*432 input3
*433 input4
*434 input5
*435 input6
*436 input7
*437 input8
*438 input9
*439 output12
*440 output13
*441 output14
*442 output15
*443 output16
*444 output17

*PORTS
a[0] I
a[1] I
a[2] I
a[3] I
b[0] I
b[1] I
b[2] I
b[3] I
carry_out O
clk I
control[0] I
control[1] I
control[2] I
result[0] O
result[1] O
result[2] O
result[3] O
zero O

*D_NET *3 0.000709527
*CONN
*P a[0] I
*I *428:A I *D sky130_fd_sc_hd__buf_1
*CAP
1 a[0] 0.000354763
2 *428:A 0.000354763
3 *428:A *434:A 0
*RES
1 a[0] *428:A 45.2086 
*END

*D_NET *4 0.000747307
*CONN
*P a[1] I
*I *431:A I *D sky130_fd_sc_hd__buf_1
*CAP
1 a[1] 0.000373653
2 *431:A 0.000373653
3 *431:A *435:A 0
*RES
1 a[1] *431:A 46.1614 
*END

*D_NET *5 0.000763809
*CONN
*P a[2] I
*I *432:A I *D sky130_fd_sc_hd__clkbuf_1
*CAP
1 a[2] 0.000356487
2 *432:A 0
3 *5:13 0.000356487
4 *5:13 *9:13 5.08354e-05
*RES
1 a[2] *5:13 28.0056 
2 *5:13 *432:A 23 
*END

*D_NET *6 0.00066584
*CONN
*P a[3] I
*I *433:A I *D sky130_fd_sc_hd__buf_1
*CAP
1 a[3] 0.000305903
2 *433:A 0.000305903
3 *433:A *437:A 0
4 *433:A *26:44 5.40337e-05
*RES
1 a[3] *433:A 44.2764 
*END

*D_NET *7 0.000871918
*CONN
*P b[0] I
*I *434:A I *D sky130_fd_sc_hd__buf_1
*CAP
1 b[0] 0.000409593
2 *434:A 0.000409593
3 *434:A *302:B 1.12349e-05
4 *434:A *154:6 2.07484e-05
5 *434:A *154:12 2.07484e-05
6 *428:A *434:A 0
*RES
1 b[0] *434:A 46.5964 
*END

*D_NET *8 0.00081333
*CONN
*P b[1] I
*I *435:A I *D sky130_fd_sc_hd__buf_1
*CAP
1 b[1] 0.000377687
2 *435:A 0.000377687
3 *435:A *56:72 5.79559e-05
4 *431:A *435:A 0
*RES
1 b[1] *435:A 45.975 
*END

*D_NET *9 0.000802073
*CONN
*P b[2] I
*I *436:A I *D sky130_fd_sc_hd__buf_1
*CAP
1 b[2] 0.000375619
2 *436:A 0
3 *9:13 0.000375619
4 *9:13 *158:18 0
5 *5:13 *9:13 5.08354e-05
*RES
1 b[2] *9:13 28.3578 
2 *9:13 *436:A 23 
*END

*D_NET *10 0.00060595
*CONN
*P b[3] I
*I *437:A I *D sky130_fd_sc_hd__buf_1
*CAP
1 b[3] 0.000288283
2 *437:A 0.000288283
3 *437:A *429:A 0
4 *437:A *157:14 2.93845e-05
5 *433:A *437:A 0
*RES
1 b[3] *437:A 43.8 
*END

*D_NET *11 0.00146231
*CONN
*P carry_out O
*I *439:X O *D sky130_fd_sc_hd__buf_2
*CAP
1 carry_out 0.000668242
2 *439:X 0.000668242
3 carry_out result[3] 8.67881e-05
4 carry_out zero 0
5 carry_out *439:A 3.90334e-05
*RES
1 *439:X carry_out 49.2543 
*END

*D_NET *12 0.00105351
*CONN
*P clk I
*I *424:A I *D sky130_fd_sc_hd__clkbuf_16
*CAP
1 clk 0.000410969
2 *424:A 0.000410969
3 *424:A result[2] 7.43751e-05
4 *424:A zero 8.33704e-05
5 *424:A *18:10 0
6 *424:A *147:10 7.38265e-05
*RES
1 clk *424:A 49.1831 
*END

*D_NET *13 0.000865567
*CONN
*P control[0] I
*I *438:A I *D sky130_fd_sc_hd__buf_2
*CAP
1 control[0] 0.000430927
2 *438:A 0
3 *13:13 0.000430927
4 *13:13 *158:10 3.7122e-06
*RES
1 control[0] *13:13 30.6243 
2 *13:13 *438:A 23 
*END

*D_NET *14 0.000725199
*CONN
*P control[1] I
*I *429:A I *D sky130_fd_sc_hd__buf_1
*CAP
1 control[1] 0.000362599
2 *429:A 0.000362599
3 *437:A *429:A 0
*RES
1 control[1] *429:A 45.0429 
*END

*D_NET *15 0.000945654
*CONN
*P control[2] I
*I *430:A I *D sky130_fd_sc_hd__clkbuf_4
*CAP
1 control[2] 0.000453328
2 *430:A 0.000453328
3 *430:A *55:14 0
4 *430:A *143:12 3.89972e-05
*RES
1 control[2] *430:A 49.9733 
*END

*D_NET *16 0.00124217
*CONN
*P result[0] O
*I *440:X O *D sky130_fd_sc_hd__buf_2
*CAP
1 result[0] 0.00059448
2 *440:X 0.00059448
3 result[0] result[1] 5.32136e-05
4 result[0] result[2] 0
*RES
1 *440:X result[0] 49.707 
*END

*D_NET *17 0.00123528
*CONN
*P result[1] O
*I *441:X O *D sky130_fd_sc_hd__buf_2
*CAP
1 result[1] 0.000105165
2 *441:X 0.000458853
3 *17:10 0.000564019
4 *17:10 *441:A 5.40337e-05
5 result[0] result[1] 5.32136e-05
*RES
1 *441:X *17:10 46.6275 
2 *17:10 result[1] 8.50027 
*END

*D_NET *18 0.00163668
*CONN
*P result[2] O
*I *442:X O *D sky130_fd_sc_hd__buf_2
*CAP
1 result[2] 0.000175346
2 *442:X 0.000577359
3 *18:10 0.000752705
4 *18:10 zero 0
5 *18:10 *442:A 5.68958e-05
6 *18:10 *147:10 0
7 result[0] result[2] 0
8 *424:A result[2] 7.43751e-05
9 *424:A *18:10 0
*RES
1 *442:X *18:10 49.0718 
2 *18:10 result[2] 8.75787 
*END

*D_NET *19 0.00122988
*CONN
*P result[3] O
*I *443:X O *D sky130_fd_sc_hd__buf_2
*CAP
1 result[3] 0.000517784
2 *443:X 0.000517784
3 result[3] zero 0.000107527
4 carry_out result[3] 8.67881e-05
*RES
1 *443:X result[3] 49.0027 
*END

*D_NET *20 0.00143733
*CONN
*P zero O
*I *444:X O *D sky130_fd_sc_hd__buf_2
*CAP
1 zero 0.000617931
2 *444:X 0.000617931
3 zero *149:10 1.05658e-05
4 carry_out zero 0
5 result[3] zero 0.000107527
6 *424:A zero 8.33704e-05
7 *18:10 zero 0
*RES
1 *444:X zero 48.6419 
*END

*D_NET *21 0.000500948
*CONN
*I *423:D I *D sky130_fd_sc_hd__dfxtp_1
*I *409:Y O *D sky130_fd_sc_hd__nor2_1
*CAP
1 *423:D 6.27717e-05
2 *409:Y 0.000127197
3 *21:10 0.000189969
4 *21:10 *409:B 7.61229e-06
5 *21:10 *423:CLK 0.000113398
*RES
1 *409:Y *21:10 40.175 
2 *21:10 *423:D 38.9373 
*END

*D_NET *22 0.00110564
*CONN
*I *418:D I *D sky130_fd_sc_hd__dfxtp_1
*I *417:Y O *D sky130_fd_sc_hd__a31oi_1
*CAP
1 *418:D 0.000119939
2 *417:Y 0.000215725
3 *22:10 0.000335664
4 *418:D *48:12 2.10502e-05
5 *418:D *49:10 5.58003e-05
6 *22:10 *417:A1 1.47394e-05
7 *22:10 *417:B1 0.000140246
8 *22:10 *418:CLK 1.07299e-05
9 *22:10 *49:10 8.36198e-05
10 *22:10 *78:22 0.000108129
*RES
1 *417:Y *22:10 41.6043 
2 *22:10 *418:D 40.3666 
*END

*D_NET *23 0.0036275
*CONN
*I *392:B I *D sky130_fd_sc_hd__nand3_1
*I *384:B I *D sky130_fd_sc_hd__nand2_1
*I *383:X O *D sky130_fd_sc_hd__or2b_1
*CAP
1 *392:B 0.000287889
2 *384:B 3.73115e-05
3 *383:X 0.000291122
4 *23:22 0.00112457
5 *23:12 0.00109049
6 *384:B *384:A 5.12055e-06
7 *384:B *390:A 7.11824e-06
8 *392:B *384:A 7.64059e-06
9 *392:B *390:A 0.000102971
10 *392:B *392:A 2.64616e-05
11 *392:B *393:C 3.7681e-05
12 *392:B *30:8 4.70479e-05
13 *392:B *48:12 2.74142e-06
14 *23:12 *142:10 7.57281e-06
15 *23:12 *157:14 2.93335e-05
16 *23:22 *28:30 7.57281e-06
17 *23:22 *29:42 0.000321784
18 *23:22 *39:12 0.000164752
19 *23:22 *48:12 1.58792e-05
20 *23:22 *153:14 1.24298e-05
*RES
1 *383:X *23:12 49.8011 
2 *23:12 *23:22 27.6686 
3 *23:22 *384:B 23.8493 
4 *23:22 *392:B 27.4536 
*END

*D_NET *24 0.000239363
*CONN
*I *390:A I *D sky130_fd_sc_hd__nand2_1
*I *384:Y O *D sky130_fd_sc_hd__nand2_1
*CAP
1 *390:A 3.73379e-05
2 *384:Y 3.73379e-05
3 *390:A *384:A 4.36144e-05
4 *390:A *48:12 1.09834e-05
5 *384:B *390:A 7.11824e-06
6 *392:B *390:A 0.000102971
*RES
1 *384:Y *390:A 47.595 
*END

*D_NET *25 0.000191775
*CONN
*I *387:A I *D sky130_fd_sc_hd__nand2_1
*I *385:Y O *D sky130_fd_sc_hd__inv_2
*CAP
1 *387:A 1.55844e-05
2 *385:Y 1.55844e-05
3 *387:A *388:A 5.76359e-05
4 *387:A *27:6 0.000102971
*RES
1 *385:Y *387:A 47.0979 
*END

*D_NET *26 0.00331101
*CONN
*I *410:A I *D sky130_fd_sc_hd__nand2_1
*I *387:B I *D sky130_fd_sc_hd__nand2_1
*I *399:A2 I *D sky130_fd_sc_hd__o2111a_1
*I *386:Y O *D sky130_fd_sc_hd__inv_2
*CAP
1 *410:A 0
2 *387:B 0.000167344
3 *399:A2 0.00015281
4 *386:Y 0
5 *26:44 0.000381587
6 *26:10 0.000683653
7 *26:4 0.000745085
8 *387:B *388:A 1.93477e-05
9 *387:B *395:A2 3.06911e-06
10 *387:B *27:6 5.58003e-05
11 *399:A2 *304:A 0.000116366
12 *399:A2 *395:A2 8.28384e-05
13 *399:A2 *399:C1 4.68188e-05
14 *399:A2 *29:12 0
15 *399:A2 *66:10 0.000141344
16 *399:A2 *142:10 7.31314e-05
17 *26:10 *386:A 5.00782e-05
18 *26:10 *29:12 0
19 *26:10 *142:10 0.000214096
20 *26:10 *157:14 0.000147656
21 *26:44 *410:B 2.56066e-05
22 *26:44 *153:10 0.000150348
23 *433:A *26:44 5.40337e-05
*RES
1 *386:Y *26:4 23 
2 *26:4 *26:10 21.4421 
3 *26:10 *399:A2 42.1843 
4 *26:10 *387:B 40.5686 
5 *26:4 *26:44 37.0636 
6 *26:44 *410:A 23 
*END

*D_NET *27 0.00105885
*CONN
*I *389:A I *D sky130_fd_sc_hd__nand2_2
*I *395:A3 I *D sky130_fd_sc_hd__a31oi_1
*I *387:Y O *D sky130_fd_sc_hd__nand2_1
*CAP
1 *389:A 5.65621e-05
2 *395:A3 0
3 *387:Y 0.000146821
4 *27:12 0.000114171
5 *27:6 0.000317554
6 *389:A *153:14 1.59071e-05
7 *27:6 *388:A 2.71514e-05
8 *27:6 *153:14 3.42479e-05
9 *27:12 *29:12 0.000156123
10 *27:12 *34:10 3.15395e-05
11 *387:A *27:6 0.000102971
12 *387:B *27:6 5.58003e-05
*RES
1 *387:Y *27:6 26.0036 
2 *27:6 *27:12 32.2579 
3 *27:12 *395:A3 23 
4 *27:6 *389:A 24.1186 
*END

*D_NET *28 0.00509808
*CONN
*I *413:B I *D sky130_fd_sc_hd__nand2_1
*I *397:A2 I *D sky130_fd_sc_hd__a21oi_1
*I *394:A I *D sky130_fd_sc_hd__nand2_1
*I *389:B I *D sky130_fd_sc_hd__nand2_2
*I *388:Y O *D sky130_fd_sc_hd__nand2_1
*CAP
1 *413:B 0
2 *397:A2 0.000106452
3 *394:A 0
4 *389:B 2.1982e-05
5 *388:Y 0.000499693
6 *28:57 0.000708197
7 *28:30 0.00123553
8 *28:12 2.1982e-05
9 *28:10 0.000920576
10 *389:B *34:10 2.93335e-05
11 *389:B *153:14 2.93335e-05
12 *397:A2 *38:10 2.05503e-05
13 *397:A2 *81:20 0.000107485
14 *28:10 *388:A 0.000274077
15 *28:10 *410:B 4.80785e-07
16 *28:10 *65:74 2.15514e-05
17 *28:10 *153:10 6.86174e-06
18 *28:10 *153:14 0.000262707
19 *28:10 *157:14 3.7122e-06
20 *28:30 *34:10 0.000158487
21 *28:30 *36:10 1.88129e-05
22 *28:30 *39:12 0.000287553
23 *28:30 *65:74 3.41998e-06
24 *28:57 *391:A 7.62749e-06
25 *28:57 *414:A 3.42724e-05
26 *28:57 *417:A2 9.03364e-06
27 *28:57 *29:42 5.21782e-05
28 *28:57 *31:29 5.27038e-05
29 *28:57 *39:12 4.28574e-05
30 *28:57 *50:10 0.000105955
31 *28:57 *65:62 4.70992e-05
32 *23:22 *28:30 7.57281e-06
*RES
1 *388:Y *28:10 45.54 
2 *28:10 *28:12 15 
3 *28:12 *389:B 23.6214 
4 *28:12 *394:A 23 
5 *28:10 *28:30 11.7094 
6 *28:30 *397:A2 47.9161 
7 *28:30 *28:57 28.0118 
8 *28:57 *413:B 23 
*END

*D_NET *29 0.005537
*CONN
*I *391:A I *D sky130_fd_sc_hd__inv_2
*I *402:B I *D sky130_fd_sc_hd__nand2_1
*I *390:B I *D sky130_fd_sc_hd__nand2_1
*I *396:B I *D sky130_fd_sc_hd__nor2_1
*I *399:D1 I *D sky130_fd_sc_hd__o2111a_1
*I *389:Y O *D sky130_fd_sc_hd__nand2_2
*CAP
1 *391:A 0.000144735
2 *402:B 0.000251238
3 *390:B 1.70619e-05
4 *396:B 0
5 *399:D1 5.45676e-05
6 *389:Y 0
7 *29:44 0.0002683
8 *29:42 0.000767213
9 *29:31 0.000183999
10 *29:12 0.000465351
11 *29:6 0.000849262
12 *390:B *384:A 4.77164e-06
13 *390:B *129:16 3.34818e-06
14 *391:A *31:29 0.000193009
15 *391:A *65:74 0.000196773
16 *399:D1 *395:A2 6.17437e-06
17 *399:D1 *66:10 2.64616e-05
18 *402:B *392:C 4.76373e-05
19 *402:B *402:A 2.21531e-05
20 *402:B *412:B 6.74475e-05
21 *402:B *50:10 3.61802e-05
22 *402:B *129:16 3.34818e-06
23 *29:12 *395:A2 7.3175e-05
24 *29:12 *34:10 0
25 *29:12 *35:10 6.17437e-06
26 *29:12 *39:12 2.26497e-05
27 *29:12 *66:10 2.95526e-05
28 *29:12 *153:29 1.13812e-05
29 *29:31 *395:A2 0.000163102
30 *29:31 *396:A 5.58003e-05
31 *29:31 *398:A 3.48229e-05
32 *29:31 *66:10 0.000168678
33 *29:31 *66:21 2.53488e-05
34 *29:31 *72:25 9.20193e-05
35 *29:31 *111:53 0.000185618
36 *29:42 *39:12 1.58689e-05
37 *29:42 *65:74 0.000506065
38 *399:A2 *29:12 0
39 *23:22 *29:42 0.000321784
40 *26:10 *29:12 0
41 *27:12 *29:12 0.000156123
42 *28:57 *391:A 7.62749e-06
43 *28:57 *29:42 5.21782e-05
*RES
1 *389:Y *29:6 38 
2 *29:6 *29:12 19.5364 
3 *29:12 *399:D1 24.1186 
4 *29:12 *29:31 35.8621 
5 *29:31 *396:B 23 
6 *29:6 *29:42 9.6016 
7 *29:42 *29:44 8 
8 *29:44 *390:B 38.3211 
9 *29:44 *402:B 42.2982 
10 *29:42 *391:A 46.8064 
*END

*D_NET *30 0.00134397
*CONN
*I *411:A I *D sky130_fd_sc_hd__nand3_1
*I *393:A I *D sky130_fd_sc_hd__nand3_1
*I *390:Y O *D sky130_fd_sc_hd__nand2_1
*CAP
1 *411:A 8.95518e-06
2 *393:A 0
3 *390:Y 0.000203061
4 *30:8 0.000212016
5 *411:A *393:B 5.79559e-05
6 *411:A *48:12 2.46906e-05
7 *30:8 *384:A 0.000102971
8 *30:8 *392:A 9.79925e-05
9 *30:8 *393:B 3.01704e-05
10 *30:8 *393:C 0.000164037
11 *30:8 *48:12 0.000395074
12 *392:B *30:8 4.70479e-05
*RES
1 *390:Y *30:8 30.7886 
2 *30:8 *393:A 23 
3 *30:8 *411:A 23.6214 
*END

*D_NET *31 0.00342601
*CONN
*I *412:B I *D sky130_fd_sc_hd__nand2_1
*I *392:C I *D sky130_fd_sc_hd__nand3_1
*I *403:C I *D sky130_fd_sc_hd__nand3_1
*I *391:Y O *D sky130_fd_sc_hd__inv_2
*CAP
1 *412:B 0.000199505
2 *392:C 3.07303e-05
3 *403:C 0.000464201
4 *391:Y 9.61932e-05
5 *31:29 0.000571198
6 *31:8 0.000901356
7 *392:C *129:16 1.81615e-05
8 *403:C *403:A 3.28357e-06
9 *403:C *405:A 1.41244e-05
10 *403:C *406:A2 2.45032e-06
11 *403:C *406:B1 5.56279e-05
12 *403:C *50:10 2.72789e-05
13 *403:C *53:10 0.000283564
14 *403:C *53:16 0.00013361
15 *403:C *65:74 0
16 *412:B *402:A 5.82853e-05
17 *412:B *41:10 3.50862e-06
18 *412:B *129:16 5.53157e-05
19 *31:8 *393:C 0.000146822
20 *391:A *31:29 0.000193009
21 *402:B *392:C 4.76373e-05
22 *402:B *412:B 6.74475e-05
23 *28:57 *31:29 5.27038e-05
*RES
1 *391:Y *31:8 39.5743 
2 *31:8 *403:C 45.8507 
3 *31:8 *31:29 16.7429 
4 *31:29 *392:C 38.6732 
5 *31:29 *412:B 41.4489 
*END

*D_NET *32 0.000676257
*CONN
*I *393:C I *D sky130_fd_sc_hd__nand3_1
*I *392:Y O *D sky130_fd_sc_hd__nand3_1
*CAP
1 *393:C 0.000157639
2 *392:Y 0.000157639
3 *393:C *392:A 1.24376e-05
4 *392:B *393:C 3.7681e-05
5 *30:8 *393:C 0.000164037
6 *31:8 *393:C 0.000146822
*RES
1 *392:Y *393:C 49.9771 
*END

*D_NET *33 0.00161298
*CONN
*I *406:A1 I *D sky130_fd_sc_hd__a21oi_1
*I *393:Y O *D sky130_fd_sc_hd__nand3_1
*CAP
1 *406:A1 4.36215e-05
2 *393:Y 0.000426908
3 *33:10 0.00047053
4 *406:A1 *406:B1 5.56356e-05
5 *33:10 *48:12 5.56356e-05
6 *33:10 *53:10 0.000300074
7 *33:10 *53:16 0.000260575
*RES
1 *393:Y *33:10 46.1614 
2 *33:10 *406:A1 38.6214 
*END

*D_NET *34 0.000618713
*CONN
*I *395:A1 I *D sky130_fd_sc_hd__a31oi_1
*I *394:Y O *D sky130_fd_sc_hd__nand2_1
*CAP
1 *395:A1 3.1309e-05
2 *394:Y 0.000153701
3 *34:10 0.00018501
4 *395:A1 *35:10 2.93335e-05
5 *389:B *34:10 2.93335e-05
6 *27:12 *34:10 3.15395e-05
7 *28:30 *34:10 0.000158487
8 *29:12 *34:10 0
*RES
1 *394:Y *34:10 40.8793 
2 *34:10 *395:A1 38.6214 
*END

*D_NET *35 0.00102525
*CONN
*I *398:A I *D sky130_fd_sc_hd__nand2_1
*I *395:Y O *D sky130_fd_sc_hd__a31oi_1
*CAP
1 *398:A 7.07714e-05
2 *395:Y 0.000294106
3 *35:10 0.000364877
4 *398:A *36:10 0.000102389
5 *398:A *111:53 3.18142e-05
6 *35:10 *395:A2 1.79479e-05
7 *35:10 *66:10 6.68378e-05
8 *35:10 *81:20 6.17437e-06
9 *395:A1 *35:10 2.93335e-05
10 *29:12 *35:10 6.17437e-06
11 *29:31 *398:A 3.48229e-05
*RES
1 *395:Y *35:10 42.4329 
2 *35:10 *398:A 40.0714 
*END

*D_NET *36 0.00118325
*CONN
*I *397:B1 I *D sky130_fd_sc_hd__a21oi_1
*I *396:Y O *D sky130_fd_sc_hd__nor2_1
*CAP
1 *397:B1 2.47522e-05
2 *396:Y 0.000234039
3 *36:10 0.000258791
4 *397:B1 *81:20 5.5792e-05
5 *36:10 *398:B 2.93335e-05
6 *36:10 *37:8 0.000110258
7 *36:10 *38:10 0.000140268
8 *36:10 *68:24 0.000182383
9 *36:10 *111:53 2.64298e-05
10 *398:A *36:10 0.000102389
11 *28:30 *36:10 1.88129e-05
*RES
1 *396:Y *36:10 43.6136 
2 *36:10 *397:B1 38.6214 
*END

*D_NET *37 0.00047734
*CONN
*I *398:B I *D sky130_fd_sc_hd__nand2_1
*I *397:Y O *D sky130_fd_sc_hd__a21oi_1
*CAP
1 *398:B 2.1982e-05
2 *397:Y 0.000119905
3 *37:8 0.000141888
4 *398:B *111:53 2.93335e-05
5 *37:8 *68:24 2.46399e-05
6 *36:10 *398:B 2.93335e-05
7 *36:10 *37:8 0.000110258
*RES
1 *397:Y *37:8 40.2579 
2 *37:8 *398:B 38.6214 
*END

*D_NET *38 0.00101806
*CONN
*I *400:A I *D sky130_fd_sc_hd__nor2_1
*I *398:Y O *D sky130_fd_sc_hd__nand2_1
*CAP
1 *400:A 0
2 *398:Y 0.000375169
3 *38:10 0.000375169
4 *38:10 *400:B 4.77164e-06
5 *38:10 *68:24 6.64449e-05
6 *38:10 *81:20 2.59031e-05
7 *38:10 *111:53 9.78255e-06
8 *397:A2 *38:10 2.05503e-05
9 *36:10 *38:10 0.000140268
*RES
1 *398:Y *38:10 43.2614 
2 *38:10 *400:A 38 
*END

*D_NET *39 0.00163148
*CONN
*I *400:B I *D sky130_fd_sc_hd__nor2_1
*I *399:X O *D sky130_fd_sc_hd__o2111a_1
*CAP
1 *400:B 1.75889e-05
2 *399:X 0.000524265
3 *39:12 0.000541854
4 *39:12 *395:A2 9.31679e-06
5 *23:22 *39:12 0.000164752
6 *28:30 *39:12 0.000287553
7 *28:57 *39:12 4.28574e-05
8 *29:12 *39:12 2.26497e-05
9 *29:42 *39:12 1.58689e-05
10 *38:10 *400:B 4.77164e-06
*RES
1 *399:X *39:12 47.4933 
2 *39:12 *400:B 46.3211 
*END

*D_NET *40 0.00203939
*CONN
*I *406:A2 I *D sky130_fd_sc_hd__a21oi_1
*I *400:Y O *D sky130_fd_sc_hd__nor2_1
*CAP
1 *406:A2 0.000484973
2 *400:Y 0.000279711
3 *40:10 0.000764685
4 *406:A2 *403:B 4.53082e-05
5 *406:A2 *405:A 0.000224895
6 *406:A2 *406:B1 2.82953e-05
7 *40:10 *402:A 2.19403e-05
8 *40:10 *41:10 3.6608e-05
9 *40:10 *42:8 3.6608e-05
10 *40:10 *50:10 5.82853e-05
11 *40:10 *81:20 5.56279e-05
12 *403:C *406:A2 2.45032e-06
*RES
1 *400:Y *40:10 42.205 
2 *40:10 *406:A2 44.5871 
*END

*D_NET *41 0.000848095
*CONN
*I *402:A I *D sky130_fd_sc_hd__nand2_1
*I *412:A I *D sky130_fd_sc_hd__nand2_1
*I *401:Y O *D sky130_fd_sc_hd__nand2_1
*CAP
1 *402:A 7.71428e-05
2 *412:A 0
3 *401:Y 0.000196845
4 *41:12 7.71428e-05
5 *41:10 0.000196845
6 *402:A *414:A 0
7 *402:A *50:10 0.000102971
8 *41:10 *403:B 2.95423e-05
9 *41:10 *81:20 2.51115e-05
10 *41:10 *129:16 0
11 *402:B *402:A 2.21531e-05
12 *412:B *402:A 5.82853e-05
13 *412:B *41:10 3.50862e-06
14 *40:10 *402:A 2.19403e-05
15 *40:10 *41:10 3.6608e-05
*RES
1 *401:Y *41:10 40.8793 
2 *41:10 *41:12 15 
3 *41:12 *412:A 23 
4 *41:12 *402:A 25.5686 
*END

*D_NET *42 0.000386088
*CONN
*I *404:A I *D sky130_fd_sc_hd__nand3_1
*I *402:Y O *D sky130_fd_sc_hd__nand2_1
*CAP
1 *404:A 0
2 *402:Y 8.83424e-05
3 *42:8 8.83424e-05
4 *42:8 *404:B 1.13812e-05
5 *42:8 *129:16 0.000161414
6 *40:10 *42:8 3.6608e-05
*RES
1 *402:Y *42:8 40.2579 
2 *42:8 *404:A 38 
*END

*D_NET *43 0.000522163
*CONN
*I *404:C I *D sky130_fd_sc_hd__nand3_1
*I *403:Y O *D sky130_fd_sc_hd__nand3_1
*CAP
1 *404:C 0.000168699
2 *403:Y 0.000168699
3 *404:C *401:A 2.33679e-05
4 *404:C *403:A 0.000150139
5 *404:C *111:53 1.1258e-05
*RES
1 *403:Y *404:C 48.5479 
*END

*D_NET *44 0.000581799
*CONN
*I *405:A I *D sky130_fd_sc_hd__inv_2
*I *404:Y O *D sky130_fd_sc_hd__nand3_1
*CAP
1 *405:A 0.000118752
2 *404:Y 0.000118752
3 *405:A *403:B 0.000105274
4 *403:C *405:A 1.41244e-05
5 *406:A2 *405:A 0.000224895
*RES
1 *404:Y *405:A 49.3764 
*END

*D_NET *45 0.000478077
*CONN
*I *406:B1 I *D sky130_fd_sc_hd__a21oi_1
*I *405:Y O *D sky130_fd_sc_hd__inv_2
*CAP
1 *406:B1 0.000166839
2 *405:Y 0.000166839
3 *406:B1 *137:10 4.84129e-06
4 *403:C *406:B1 5.56279e-05
5 *406:A1 *406:B1 5.56356e-05
6 *406:A2 *406:B1 2.82953e-05
*RES
1 *405:Y *406:B1 49.0036 
*END

*D_NET *46 0.0016636
*CONN
*I *408:A I *D sky130_fd_sc_hd__nand2_1
*I *407:Y O *D sky130_fd_sc_hd__nor2_1
*CAP
1 *408:A 0.000106733
2 *407:Y 0.000246212
3 *46:10 0.000352944
4 *408:A *47:10 6.25788e-05
5 *46:10 *419:D 1.24376e-05
6 *46:10 *421:CLK 0.000355734
7 *46:10 *134:10 8.36198e-05
8 *46:10 *134:14 2.02872e-05
9 *46:10 *136:10 0.000168524
10 *46:10 *138:12 0.000217793
11 *46:10 *138:31 3.67392e-05
*RES
1 *407:Y *46:10 46.1614 
2 *46:10 *408:A 40.0507 
*END

*D_NET *47 0.00133822
*CONN
*I *409:A I *D sky130_fd_sc_hd__nor2_1
*I *408:Y O *D sky130_fd_sc_hd__nand2_1
*CAP
1 *409:A 0
2 *408:Y 0.000318628
3 *47:10 0.000318628
4 *47:10 *423:CLK 0.000198447
5 *47:10 *133:20 3.7122e-06
6 *47:10 *136:10 8.36198e-05
7 *47:10 *138:31 0.000352603
8 *408:A *47:10 6.25788e-05
*RES
1 *408:Y *47:10 45.25 
2 *47:10 *409:A 38 
*END

*D_NET *48 0.00244477
*CONN
*I *411:C I *D sky130_fd_sc_hd__nand3_1
*I *410:Y O *D sky130_fd_sc_hd__nand2_1
*CAP
1 *411:C 0
2 *410:Y 0.000858392
3 *48:12 0.000858392
4 *48:12 *384:A 0.000172668
5 *48:12 *393:B 2.16192e-05
6 *48:12 *49:10 7.64059e-06
7 *390:A *48:12 1.09834e-05
8 *392:B *48:12 2.74142e-06
9 *411:A *48:12 2.46906e-05
10 *418:D *48:12 2.10502e-05
11 *23:22 *48:12 1.58792e-05
12 *30:8 *48:12 0.000395074
13 *33:10 *48:12 5.56356e-05
*RES
1 *410:Y *48:12 37.5 
2 *48:12 *411:C 23 
*END

*D_NET *49 0.00113407
*CONN
*I *417:A1 I *D sky130_fd_sc_hd__a31oi_1
*I *411:Y O *D sky130_fd_sc_hd__nand3_1
*CAP
1 *417:A1 0.000160802
2 *411:Y 0.000157145
3 *49:10 0.000317946
4 *417:A1 *417:B1 9.93323e-05
5 *49:10 *393:B 1.24376e-05
6 *49:10 *418:CLK 8.57577e-05
7 *49:10 *78:22 6.151e-05
8 *49:10 *139:19 7.73447e-05
9 *418:D *49:10 5.58003e-05
10 *22:10 *417:A1 1.47394e-05
11 *22:10 *49:10 8.36198e-05
12 *48:12 *49:10 7.64059e-06
*RES
1 *411:Y *49:10 41.3557 
2 *49:10 *417:A1 41.0036 
*END

*D_NET *50 0.000867265
*CONN
*I *413:A I *D sky130_fd_sc_hd__nand2_1
*I *412:Y O *D sky130_fd_sc_hd__nand2_1
*CAP
1 *413:A 0
2 *412:Y 0.000225304
3 *50:10 0.000225304
4 *50:10 *414:A 5.56279e-05
5 *50:10 *417:A2 1.59071e-05
6 *50:10 *65:62 1.10891e-05
7 *50:10 *65:74 3.36312e-06
8 *402:A *50:10 0.000102971
9 *402:B *50:10 3.61802e-05
10 *403:C *50:10 2.72789e-05
11 *28:57 *50:10 0.000105955
12 *40:10 *50:10 5.82853e-05
*RES
1 *412:Y *50:10 42.8057 
2 *50:10 *413:A 38 
*END

*D_NET *51 0.000236368
*CONN
*I *414:A I *D sky130_fd_sc_hd__nand2_1
*I *413:Y O *D sky130_fd_sc_hd__nand2_1
*CAP
1 *414:A 4.47859e-05
2 *413:Y 4.47859e-05
3 *414:A *417:A2 5.68958e-05
4 *402:A *414:A 0
5 *28:57 *414:A 3.42724e-05
6 *50:10 *414:A 5.56279e-05
*RES
1 *413:Y *414:A 47.595 
*END

*D_NET *52 0.000456119
*CONN
*I *417:A2 I *D sky130_fd_sc_hd__a31oi_1
*I *414:Y O *D sky130_fd_sc_hd__nand2_1
*CAP
1 *417:A2 0.000187141
2 *414:Y 0.000187141
3 *414:A *417:A2 5.68958e-05
4 *28:57 *417:A2 9.03364e-06
5 *50:10 *417:A2 1.59071e-05
*RES
1 *414:Y *417:A2 49.0036 
*END

*D_NET *53 0.00311099
*CONN
*I *417:A3 I *D sky130_fd_sc_hd__a31oi_1
*I *416:B I *D sky130_fd_sc_hd__nor2_1
*I *415:Y O *D sky130_fd_sc_hd__inv_2
*CAP
1 *417:A3 0
2 *416:B 0
3 *415:Y 0.000315233
4 *53:16 0.000714205
5 *53:10 0.00102944
6 *53:10 *77:43 3.07986e-05
7 *53:10 *78:22 4.34897e-05
8 *403:C *53:10 0.000283564
9 *403:C *53:16 0.00013361
10 *33:10 *53:10 0.000300074
11 *33:10 *53:16 0.000260575
*RES
1 *415:Y *53:10 45.1257 
2 *53:10 *53:16 27.5943 
3 *53:16 *416:B 23 
4 *53:10 *417:A3 38 
*END

*D_NET *54 0.00142374
*CONN
*I *417:B1 I *D sky130_fd_sc_hd__a31oi_1
*I *416:Y O *D sky130_fd_sc_hd__nor2_1
*CAP
1 *417:B1 0.000216494
2 *416:Y 0.000259561
3 *54:8 0.000476055
4 *417:B1 *139:8 0.000232049
5 *417:A1 *417:B1 9.93323e-05
6 *22:10 *417:B1 0.000140246
*RES
1 *416:Y *54:8 42.3707 
2 *54:8 *417:B1 43.4064 
*END

*D_NET *55 0.00267628
*CONN
*I *303:A_N I *D sky130_fd_sc_hd__nand2b_1
*I *322:A1 I *D sky130_fd_sc_hd__o21ai_1
*I *309:C I *D sky130_fd_sc_hd__nand3_1
*I *301:Y O *D sky130_fd_sc_hd__nor2_1
*CAP
1 *303:A_N 0
2 *322:A1 0.000333172
3 *309:C 0
4 *301:Y 0.000136607
5 *55:22 0.000193729
6 *55:14 0.000736531
7 *55:10 0.000346236
8 *322:A1 *317:B 0.000187856
9 *322:A1 *71:14 1.34995e-05
10 *322:A1 *143:22 1.74069e-05
11 *55:10 *301:A 1.83327e-05
12 *55:10 *56:8 5.92365e-05
13 *55:10 *56:22 5.58975e-06
14 *55:14 *56:22 0.000229069
15 *55:14 *57:16 1.74173e-05
16 *55:14 *64:10 8.29264e-05
17 *55:14 *143:12 0
18 *55:14 *143:120 0.000160906
19 *55:22 *56:22 5.12605e-05
20 *55:22 *143:22 8.65017e-05
21 *430:A *55:14 0
*RES
1 *301:Y *55:10 40.5271 
2 *55:10 *55:14 20.075 
3 *55:14 *55:22 33.1279 
4 *55:22 *309:C 23 
5 *55:14 *322:A1 27.8057 
6 *55:10 *303:A_N 38 
*END

*D_NET *56 0.0078508
*CONN
*I *353:A I *D sky130_fd_sc_hd__or2_1
*I *354:B I *D sky130_fd_sc_hd__nand2_1
*I *303:B I *D sky130_fd_sc_hd__nand2b_1
*I *362:A1 I *D sky130_fd_sc_hd__o21ai_1
*I *315:B I *D sky130_fd_sc_hd__nand2_1
*I *321:A_N I *D sky130_fd_sc_hd__nand3b_1
*I *302:Y O *D sky130_fd_sc_hd__nand2_1
*CAP
1 *353:A 0
2 *354:B 2.18824e-05
3 *303:B 2.48675e-05
4 *362:A1 0.000104241
5 *315:B 1.28301e-05
6 *321:A_N 2.72777e-05
7 *302:Y 0
8 *56:91 0.000400807
9 *56:72 0.00114202
10 *56:41 0.000431105
11 *56:24 0.000341311
12 *56:22 0.000498472
13 *56:8 0.000747927
14 *56:4 0.000943918
15 *321:A_N *321:C 1.12349e-05
16 *362:A1 *344:A 5.56279e-05
17 *362:A1 *362:B1 1.02797e-05
18 *362:A1 *94:24 7.36529e-05
19 *56:8 *141:14 0.000163025
20 *56:22 *349:A 0.000137368
21 *56:22 *57:8 6.47651e-05
22 *56:22 *57:16 2.35723e-05
23 *56:22 *64:10 2.61756e-05
24 *56:22 *143:12 0
25 *56:22 *143:22 2.25792e-05
26 *56:22 *143:120 0.000110184
27 *56:41 *315:A 5.56356e-05
28 *56:41 *57:28 1.8552e-05